*Heading
**E:\personal data\Summer internship\work_dir\nonliner_FEM_basic\assemble\vol_large.inp
*NODE
1, 0, 0, 0
2, 10, 0, 0
3, 20, 0, 0
4, 0, 10, 0
5, 10, 10, 0
6, 20, 10, 0
7, 0, 20, 0
8, 10, 20, 0
9, 20, 20, 0
10, 0, 30, 0
11, 10, 30, 0
12, 20, 30, 0
13, 0, 40, 0
14, 10, 40, 0
15, 20, 40, 0
16, 0, 50, 0
17, 10, 50, 0
18, 20, 50, 0
19, 0, 0, 10
20, 10, 0, 10
** ... 5015 like lines cut
******* E L E M E N T S *************
*ELEMENT, type=C3D4, ELSET=Volume1
1, 3642, 4056, 3633, 4067
2, 4059, 4064, 4052, 4094
3, 4055, 4066, 1977, 4089
4, 4054, 4061, 4053, 4070
5, 4059, 4077, 4064, 4094
6, 1070, 4069, 4079, 4087
7, 3642, 3633, 3632, 4067
8, 1070, 4079, 3773, 4087
9, 1142, 4056, 4067, 4068
10, 3637, 4067, 1143, 4076
11, 4053, 4061, 4054, 4065
12, 1065, 4070, 1060, 4078
13, 4061, 4069, 4053, 4092
14, 4061, 4064, 4053, 4069
15, 4052, 4056, 4063, 4093
16, 4060, 4063, 4056, 4093
17, 1070, 3773, 4069, 4087
18, 1150, 4061, 4055, 4068
19, 4055, 4061, 1150, 4069
20, 3635, 4063, 4060, 4071
** ... 887 like lines cut
*ELEMENT, type=C3D4, ELSET=Volume2
908, 4104, 4096, 4107, 4115
909, 4101, 4107, 4096, 4115
910, 4104, 4106, 4096, 4115
911, 4102, 4108, 4096, 4121
912, 4101, 4096, 4106, 4115
913, 2417, 4097, 2413, 4114
914, 1223, 4106, 4104, 4115
915, 4096, 4102, 4106, 4119
916, 4102, 4096, 4106, 4121
917, 4096, 4106, 4104, 4119
918, 2899, 4109, 4098, 4132
919, 4102, 4106, 1224, 4121
920, 1223, 611, 4106, 4115
921, 992, 989, 4113, 4122
922, 980, 4114, 985, 4123
923, 4105, 4110, 4097, 4114
924, 1224, 4119, 4102, 4127
925, 4100, 903, 4111, 4112
926, 4100, 4107, 4104, 4109
927, 4099, 4110, 4105, 4114
** ... 864 like lines cut
*ELEMENT, type=C3D4, ELSET=Volume3
1792, 1081, 4137, 1076, 4151
1793, 4140, 4149, 4156, 4174
1794, 4135, 4156, 4149, 4174
1795, 1156, 4138, 1158, 4152
1796, 4141, 4149, 4135, 4156
1797, 4135, 4146, 4156, 4174
1798, 4137, 4144, 1081, 4150
1799, 1158, 4144, 4138, 4150
1800, 4135, 4146, 4141, 4156
1801, 4136, 4147, 2005, 4152
1802, 1081, 4144, 4137, 4151
1803, 2436, 4148, 4139, 4151
1804, 1158, 4138, 4144, 4152
1805, 1081, 1074, 1076, 4137
1806, 1158, 1156, 1155, 4138
1807, 1076, 4151, 4137, 4159
1808, 4138, 4152, 1156, 4160
1809, 1079, 4151, 1076, 4159
1810, 3771, 4137, 3777, 4150
1811, 1156, 4152, 1160, 4160
** ... 860 like lines cut
*ELEMENT, type=C3D4, ELSET=Volume4
2672, 919, 4178, 916, 4191
2673, 4178, 4184, 919, 4190
2674, 2873, 4187, 4176, 4191
2675, 3931, 4177, 3942, 4193
2676, 4180, 4189, 4185, 4196
2677, 3943, 4176, 3931, 4193
2678, 927, 824, 4184, 4193
2679, 824, 1006, 4184, 4193
2680, 91, 927, 824, 4184
2681, 824, 1006, 91, 4184
2682, 4180, 4175, 4185, 4189
2683, 919, 4184, 4178, 4191
2684, 4181, 4185, 4175, 4189
2685, 4177, 4188, 2436, 4192
2686, 4185, 4189, 4181, 4196
2687, 919, 915, 916, 4178
2688, 916, 4191, 4178, 4198
2689, 4175, 4183, 4186, 4194
2690, 1296, 4183, 2431, 4201
2691, 4175, 4185, 4183, 4194
** ... 840 like lines cut
*ELEMENT, type=C3D4, ELSET=Volume5
3532, 1174, 4227, 4221, 4229
3533, 3899, 4222, 4220, 4232
3534, 3175, 4223, 4213, 4228
3535, 1182, 4221, 4213, 4229
3536, 3899, 3904, 4222, 4232
3537, 4216, 4222, 3905, 4232
3538, 4216, 4225, 2475, 4235
3539, 1174, 4217, 4227, 4229
3540, 4214, 4225, 4221, 4230
3541, 4220, 4224, 4222, 4249
3542, 4216, 4224, 4222, 4232
3543, 1182, 780, 4221, 4229
3544, 2040, 4217, 4229, 4255
3545, 3905, 4222, 4216, 4235
3546, 4214, 4230, 2471, 4253
3547, 2040, 2033, 4217, 4255
3548, 4220, 4222, 3899, 4238
3549, 1105, 4214, 4228, 4230
3550, 4222, 4224, 4220, 4232
3551, 4214, 4228, 3183, 4237
** ... 881 like lines cut
*ELEMENT, type=C3D4, ELSET=Volume6
4433, 1023, 4266, 4273, 4275
4434, 4265, 4267, 4262, 4283
4435, 3928, 4265, 4267, 4277
4436, 4262, 4267, 4265, 4271
4437, 4259, 4269, 3201, 4273
4438, 4262, 4271, 4265, 4283
4439, 2845, 4271, 4259, 4295
4440, 4271, 4281, 4263, 4298
4441, 4265, 4271, 4270, 4281
4442, 3928, 4267, 3933, 4277
4443, 4265, 4267, 4257, 4271
4444, 934, 4272, 4262, 4274
4445, 2475, 4268, 4258, 4279
4446, 3213, 3199, 4269, 4289
4447, 4270, 4281, 4271, 4298
4448, 4269, 4273, 4266, 4292
4449, 3934, 4267, 4258, 4277
4450, 1024, 4273, 3189, 4282
4451, 4259, 4266, 943, 4274
4452, 4257, 4270, 4265, 4271
** ... 864 like lines cut
*ELEMENT, type=C3D4, ELSET=Volume7
5317, 4301, 4308, 4303, 4313
5318, 1409, 4304, 4317, 4332
5319, 4301, 4308, 1190, 4319
5320, 4303, 4308, 4299, 4313
5321, 3327, 4312, 4303, 4314
5322, 1190, 4308, 4301, 4316
5323, 4303, 4308, 4301, 4319
5324, 3329, 3339, 4312, 4329
5325, 4302, 4315, 4309, 4334
5326, 4301, 4299, 4308, 4313
5327, 4303, 2056, 4313, 4328
5328, 3329, 4312, 4300, 4329
5329, 1118, 4300, 4314, 4315
5330, 4309, 4321, 4299, 4332
5331, 3175, 4301, 4310, 4316
5332, 1409, 4317, 4311, 4332
5333, 1112, 4308, 4302, 4315
5334, 2490, 4318, 4302, 4323
5335, 2070, 4313, 2056, 4328
5336, 4305, 4299, 4321, 4332
** ... 835 like lines cut
*ELEMENT, type=C3D4, ELSET=Volume8
6172, 4338, 4342, 4340, 4347
6173, 2830, 2816, 4352, 4367
6174, 4342, 4351, 3354, 4353
6175, 1040, 1036, 4339, 4353
6176, 3366, 3352, 4351, 4368
6177, 2830, 4352, 4346, 4367
6178, 2490, 4348, 4341, 4354
6179, 3201, 4350, 4340, 4355
6180, 4340, 4342, 4338, 4352
6181, 2816, 4342, 4352, 4367
6182, 951, 4347, 4340, 4357
6183, 3354, 4351, 4342, 4367
6184, 4340, 4347, 4342, 4357
6185, 4339, 4351, 3352, 4368
6186, 4339, 4347, 1040, 4353
6187, 4341, 4358, 2490, 4364
6188, 1040, 4347, 4339, 4354
6189, 1036, 1035, 1040, 4339
6190, 959, 4347, 4342, 4353
6191, 4342, 4347, 959, 4357
** ... 822 like lines cut
*ELEMENT, type=C3D4, ELSET=Volume9
7014, 4378, 4386, 3507, 4391
7015, 2517, 4385, 4379, 4390
7016, 1053, 4391, 1055, 4397
7017, 3495, 4391, 3516, 4397
7018, 3495, 1055, 4391, 4397
7019, 2521, 2525, 4376, 4390
7020, 3354, 4387, 4377, 4392
7021, 3507, 4395, 4378, 4401
7022, 2525, 2514, 2521, 4376
7023, 1044, 1046, 4392, 4402
7024, 3363, 4392, 3342, 4402
7025, 3342, 4392, 1046, 4402
7026, 2504, 4390, 1054, 4397
7027, 2525, 4390, 2504, 4397
7028, 1049, 4384, 4379, 4392
7029, 4379, 4384, 1049, 4390
7030, 3516, 4391, 4376, 4397
7031, 4383, 4387, 4375, 4394
7032, 4380, 4375, 4386, 4409
7033, 2525, 2514, 4376, 4397
** ... 812 like lines cut
*ELEMENT, type=C3D4, ELSET=Volume10
7846, 4417, 4411, 4424, 4437
7847, 4418, 4424, 4411, 4437
7848, 4411, 4417, 4423, 4436
7849, 1136, 1132, 4412, 4426
7850, 4411, 4417, 4427, 4437
7851, 4411, 4427, 4418, 4437
7852, 4411, 4423, 4419, 4436
7853, 1126, 4426, 1125, 4435
7854, 4417, 4411, 4427, 4436
7855, 3481, 4421, 4415, 4425
7856, 4417, 1441, 4427, 4437
7857, 4419, 4427, 4411, 4436
7858, 1206, 4413, 4420, 4429
7859, 1126, 2516, 4426, 4435
7860, 1206, 4420, 4413, 4428
7861, 3332, 3329, 3336, 4414
7862, 1136, 4412, 4425, 4426
7863, 4412, 4426, 1132, 4434
7864, 3481, 4415, 4430, 4439
7865, 1136, 4425, 4420, 4426
** ... 810 like lines cut
*ELEMENT, type=C3D4, ELSET=Volume11
8676, 2361, 4450, 4446, 4452
8677, 2361, 2355, 4450, 4452
8678, 1256, 2108, 2102, 4450
8679, 2106, 4450, 4446, 4451
8680, 4446, 4450, 2353, 4451
8681, 2114, 4446, 2106, 4450
8682, 2361, 2353, 4446, 4450
8683, 2114, 4446, 4450, 4452
8684, 1513, 1505, 3823, 4448
8685, 3815, 3823, 1505, 4448
8686, 2346, 3680, 2360, 4447
8687, 1261, 4450, 2355, 4452
8688, 2361, 2355, 2363, 4450
8689, 2114, 2106, 2116, 4450
8690, 2361, 2363, 2353, 4450
8691, 2114, 4450, 2116, 4452
8692, 1513, 3823, 2365, 4448
8693, 2368, 4448, 4446, 4451
8694, 4446, 4448, 2121, 4451
8695, 2106, 4446, 2121, 4451
** ... 386 like lines cut
*ELEMENT, type=C3D4, ELSET=Volume12
9082, 4455, 4459, 2140, 4460
9083, 2387, 4459, 4455, 4460
9084, 2131, 4456, 2139, 4460
9085, 2386, 4460, 4456, 4464
9086, 2383, 2372, 3816, 4456
9087, 2378, 4460, 2386, 4464
9088, 2378, 4459, 4460, 4464
9089, 2131, 2147, 4456, 4464
9090, 2136, 4456, 2147, 4457
9091, 4456, 4457, 2383, 4464
9092, 2131, 2147, 2139, 4456
9093, 2386, 2380, 4456, 4460
9094, 4456, 4460, 2380, 4462
9095, 2141, 2131, 2139, 4460
9096, 2147, 2136, 2126, 4456
9097, 2146, 2135, 4458, 4463
9098, 2147, 4457, 4456, 4464
9099, 2146, 2127, 2135, 4463
9100, 2146, 4458, 4459, 4463
9101, 2383, 2372, 4456, 4464
** ... 386 like lines cut
*ELEMENT, type=C3D4, ELSET=Volume13
9488, 2743, 4465, 4469, 4471
9489, 2743, 4469, 2737, 4471
9490, 3015, 3021, 1220, 4469
9491, 3019, 4465, 4469, 4470
9492, 2735, 4469, 4465, 4470
9493, 2743, 4465, 2735, 4469
9494, 3019, 4465, 3027, 4469
9495, 3027, 4469, 4465, 4471
9496, 3692, 2728, 2742, 4466
9497, 3837, 1469, 3827, 4467
9498, 1469, 1478, 3827, 4467
9499, 2737, 4469, 1225, 4471
9500, 2743, 2745, 2737, 4469
9501, 3027, 3029, 4469, 4471
9502, 2743, 2735, 2745, 4469
9503, 3029, 3019, 3027, 4469
9504, 4465, 4467, 2750, 4470
9505, 3034, 4467, 4465, 4470
9506, 2735, 4465, 2750, 4470
9507, 3034, 4465, 3019, 4470
** ... 386 like lines cut
*ELEMENT, type=C3D4, ELSET=Volume14
9894, 4474, 4478, 2768, 4480
9895, 1313, 1303, 3836, 4475
9896, 3836, 1303, 3826, 4475
9897, 2763, 2768, 4478, 4480
9898, 3002, 4478, 4474, 4480
9899, 1313, 3836, 3005, 4475
9900, 3988, 2756, 2766, 4476
9901, 3828, 2988, 3001, 4474
9902, 2766, 4481, 4476, 4483
9903, 3831, 3826, 3834, 4475
9904, 1311, 1303, 1308, 4475
9905, 3002, 4474, 4478, 4479
9906, 2768, 4478, 4474, 4479
9907, 3002, 3004, 4478, 4480
9908, 3831, 3834, 2771, 4475
9909, 3002, 4478, 3004, 4479
9910, 2768, 2770, 4478, 4479
9911, 1311, 1308, 2771, 4475
9912, 2763, 4478, 1522, 4480
9913, 2763, 2768, 2770, 4478
** ... 395 like lines cut
*ELEMENT, type=C3D4, ELSET=Volume15
10309, 3951, 2168, 1615, 1595
10310, 2159, 4501, 4492, 4504
10311, 3951, 2168, 1595, 4501
10312, 2158, 2159, 2168, 4501
10313, 2158, 4492, 2159, 4501
10314, 4489, 4494, 3238, 4505
10315, 2168, 1604, 1615, 1595
10316, 3961, 2168, 1615, 3951
10317, 4496, 4501, 659, 4508
10318, 3237, 4506, 4486, 4514
10319, 2159, 1604, 4501, 4504
10320, 2168, 2159, 1604, 4501
10321, 1598, 4490, 1599, 4502
10322, 2168, 1604, 1595, 4501
10323, 4487, 4484, 4494, 4502
10324, 3220, 3238, 4489, 4494
10325, 2168, 3951, 3956, 4501
10326, 4490, 4493, 1599, 4502
10327, 3237, 4494, 4486, 4506
10328, 4490, 4494, 4484, 4502
** ... 739 like lines cut
*ELEMENT, type=C3D4, ELSET=Volume16
11068, 2974, 2982, 3261, 4523
11069, 2982, 1585, 3261, 4523
11070, 1585, 2973, 1581, 4523
11071, 1569, 3244, 3261, 4523
11072, 2974, 3261, 3253, 4523
11073, 2982, 2973, 1585, 4523
11074, 1569, 3261, 1585, 4523
11075, 1585, 1581, 1569, 4523
11076, 2974, 2973, 2982, 4523
11077, 3244, 3253, 3261, 4523
11078, 3988, 4525, 656, 4527
11079, 4523, 4528, 3263, 4536
11080, 3262, 4535, 4528, 4546
11081, 1577, 4530, 4526, 4547
11082, 3988, 655, 4526, 4527
11083, 3245, 3263, 4523, 4528
11084, 3262, 4528, 3246, 4546
11085, 4528, 4535, 4524, 4546
11086, 3988, 4525, 4527, 4549
11087, 4521, 4528, 3256, 4533
** ... 739 like lines cut
*ELEMENT, type=C3D4, ELSET=Volume17
11827, 3383, 4561, 4565, 4568
11828, 4557, 4561, 3384, 4568
11829, 3375, 3384, 4561, 4568
11830, 4557, 4552, 4561, 4568
11831, 4560, 4561, 4552, 4568
11832, 4552, 4557, 4563, 4568
11833, 4552, 4564, 4557, 4569
11834, 3231, 4562, 4554, 4570
11835, 3383, 4565, 4560, 4568
11836, 4552, 4557, 4561, 4569
11837, 1648, 4563, 1666, 4572
11838, 4560, 4565, 4561, 4568
11839, 4552, 4563, 4560, 4568
11840, 2194, 4564, 4557, 4572
11841, 4552, 4558, 4564, 4569
11842, 3384, 4561, 4557, 4569
11843, 4552, 4561, 4558, 4569
11844, 3385, 3384, 3375, 4568
11845, 3383, 4568, 4560, 4579
11846, 3232, 4562, 3231, 4570
** ... 731 like lines cut
*ELEMENT, type=C3D4, ELSET=Volume18
12578, 3408, 4596, 4602, 4603
12579, 4592, 4596, 3409, 4603
12580, 3409, 4596, 3400, 4603
12581, 4592, 4587, 4596, 4603
12582, 4594, 4596, 4587, 4603
12583, 3256, 4597, 4588, 4605
12584, 4587, 4599, 4592, 4604
12585, 4587, 4592, 4598, 4603
12586, 3408, 4602, 4594, 4603
12587, 4587, 4592, 4596, 4604
12588, 1373, 4598, 1391, 4608
12589, 2961, 4599, 4592, 4608
12590, 4594, 4602, 4596, 4603
12591, 4587, 4598, 4594, 4603
12592, 3409, 4596, 4592, 4604
12593, 4587, 4593, 4599, 4604
12594, 4587, 4596, 4593, 4604
12595, 3408, 4603, 4594, 4614
12596, 3257, 4597, 3256, 4605
12597, 3255, 4597, 4589, 4609
** ... 735 like lines cut
*ELEMENT, type=C3D4, ELSET=Volume19
13333, 3372, 1422, 3388, 4627
13334, 2217, 1439, 2211, 4627
13335, 1437, 1430, 2600, 4628
13336, 3388, 1439, 2217, 4627
13337, 1437, 2600, 3539, 4628
13338, 3388, 1422, 1439, 4627
13339, 1437, 3539, 3529, 4628
13340, 2583, 3539, 2600, 4628
13341, 1429, 2211, 1439, 4627
13342, 2600, 1430, 2591, 4628
13343, 2583, 3535, 3539, 4628
13344, 3388, 2217, 3381, 4627
13345, 3529, 1428, 1437, 4628
13346, 3529, 3539, 3535, 4628
13347, 3372, 1422, 4627, 4645
13348, 2217, 2211, 2205, 4627
13349, 3388, 3381, 3372, 4627
13350, 1422, 1429, 1439, 4627
13351, 1428, 1430, 1437, 4628
13352, 2205, 3381, 2217, 4627
** ... 707 like lines cut
*ELEMENT, type=C3D4, ELSET=Volume20
14060, 3404, 3412, 1679, 4662
14061, 3397, 1672, 1688, 4660
14062, 3414, 2932, 2922, 4660
14063, 3412, 2588, 2598, 4662
14064, 2599, 3405, 3411, 4659
14065, 1462, 2593, 2599, 4659
14066, 1462, 2599, 3411, 4659
14067, 1454, 1462, 3411, 4659
14068, 1680, 2597, 1686, 4663
14069, 2932, 3414, 1688, 4660
14070, 3397, 1688, 3414, 4660
14071, 1679, 3412, 1687, 4662
14072, 1687, 3412, 2598, 4662
14073, 3557, 1686, 3565, 4663
14074, 3565, 1686, 2597, 4663
14075, 3412, 3403, 2588, 4662
14076, 1462, 1453, 2593, 4659
14077, 3565, 2597, 2589, 4663
14078, 2590, 2597, 1680, 4663
14079, 3406, 3414, 2922, 4660
** ... 694 like lines cut
*ELEMENT, type=C3D4, ELSET=Volume21
14774, 3703, 4701, 3724, 4712
14775, 4693, 4696, 3716, 4701
14776, 1506, 4701, 4695, 4702
14777, 1757, 4697, 4688, 4705
14778, 1501, 4701, 3703, 4712
14779, 4690, 4699, 4697, 4705
14780, 3724, 4701, 4687, 4712
14781, 1756, 4697, 4690, 4704
14782, 4697, 4699, 4688, 4705
14783, 1506, 4695, 4694, 4702
14784, 3720, 3713, 3724, 4687
14785, 1748, 4697, 1757, 4705
14786, 3720, 3716, 4696, 4701
14787, 4693, 4686, 4695, 4702
14788, 3724, 3720, 4687, 4701
14789, 4688, 4696, 3708, 4711
14790, 4696, 4697, 4688, 4703
14791, 3716, 4693, 3721, 4696
14792, 615, 4695, 1506, 4701
14793, 1758, 1748, 1757, 4705
** ... 745 like lines cut
*ELEMENT, type=C3D4, ELSET=Volume22
15539, 4722, 4730, 1485, 4736
15540, 607, 1485, 4730, 4736
15541, 1486, 608, 4730, 4736
15542, 1486, 4730, 4723, 4736
15543, 4725, 1740, 4732, 4737
15544, 1486, 4742, 4723, 4743
15545, 1485, 4730, 4722, 4741
15546, 1740, 1722, 4725, 4732
15547, 607, 4730, 1485, 4741
15548, 2715, 4723, 2714, 4742
15549, 4723, 4733, 4730, 4743
15550, 4722, 4734, 4730, 4736
15551, 607, 4730, 1487, 4736
15552, 1487, 4730, 608, 4736
15553, 1733, 4726, 4732, 4737
15554, 1732, 4740, 4724, 4748
15555, 4730, 4734, 4723, 4736
15556, 4728, 4738, 3742, 4751
15557, 3742, 4731, 4728, 4741
15558, 2715, 2714, 2723, 4742
** ... 739 like lines cut
*ELEMENT, type=C3D4, ELSET=Volume23
16298, 4762, 4756, 4765, 4777
16299, 4764, 4765, 4756, 4777
16300, 4760, 4766, 4757, 4778
16301, 4756, 4762, 4770, 4777
16302, 3123, 4764, 3122, 4782
16303, 3123, 3122, 3131, 4782
16304, 2690, 2689, 4759, 4780
16305, 4767, 4770, 4758, 4775
16306, 624, 4765, 4762, 4779
16307, 4757, 4766, 4760, 4769
16308, 4036, 4766, 4757, 4779
16309, 4757, 4769, 4760, 4778
16310, 1782, 4758, 4767, 4774
16311, 2703, 4760, 2695, 4778
16312, 2690, 4759, 3875, 4780
16313, 4756, 4770, 4764, 4777
16314, 4761, 4770, 4767, 4775
16315, 4036, 4757, 4766, 4778
16316, 3878, 3883, 4768, 4782
16317, 4766, 4767, 4758, 4774
** ... 759 like lines cut
*ELEMENT, type=C3D4, ELSET=Volume24
17077, 4795, 4815, 1806, 4820
17078, 4795, 4802, 1806, 4815
17079, 4797, 4800, 4799, 4809
17080, 1813, 4802, 4796, 4812
17081, 1814, 4798, 4810, 4822
17082, 1814, 4798, 4802, 4810
17083, 4791, 4799, 4797, 4800
17084, 4796, 4802, 4794, 4812
17085, 1797, 4798, 1814, 4822
17086, 4794, 4796, 4791, 4802
17087, 1813, 1796, 4796, 4802
17088, 4799, 4804, 4797, 4809
17089, 4791, 4796, 4794, 4804
17090, 1814, 4798, 1797, 4802
17091, 632, 4797, 4800, 4811
17092, 4794, 4804, 4796, 4812
17093, 1807, 4794, 4802, 4812
17094, 4797, 4799, 4791, 4804
17095, 4009, 4792, 4801, 4811
17096, 631, 4800, 4799, 4814
** ... 752 like lines cut
*ELEMENT, type=C3D4, ELSET=Volume25
17849, 4828, 4836, 3282, 4859
17850, 1840, 3265, 1851, 4853
17851, 1863, 1840, 1851, 4853
17852, 1863, 1851, 4834, 4853
17853, 1851, 3265, 3279, 4853
17854, 3282, 4828, 3280, 4843
17855, 1851, 3279, 4834, 4853
17856, 1840, 1849, 3265, 4853
17857, 2288, 2286, 4828, 4845
17858, 3280, 4843, 4828, 4844
17859, 2678, 4841, 4834, 4850
17860, 1863, 4842, 4829, 4853
17861, 2286, 4840, 4828, 4845
17862, 3280, 4828, 3282, 4859
17863, 2288, 4828, 2286, 4859
17864, 2678, 2671, 4841, 4850
17865, 1863, 4834, 4842, 4853
17866, 2670, 4834, 2678, 4841
17867, 1840, 4829, 1849, 4853
17868, 2288, 4836, 4828, 4859
** ... 758 like lines cut
*ELEMENT, type=C3D4, ELSET=Volume26
18627, 1836, 1819, 3299, 4870
18628, 3308, 3095, 3108, 4870
18629, 1833, 2675, 1827, 4871
18630, 1836, 3299, 3308, 4870
18631, 3308, 3108, 1836, 4870
18632, 4045, 2675, 1833, 4871
18633, 4045, 2658, 2675, 4871
18634, 4045, 1833, 4034, 4871
18635, 1827, 2675, 2667, 4871
18636, 3100, 1836, 3108, 4870
18637, 3100, 3108, 3095, 4870
18638, 4034, 1833, 1824, 4871
18639, 4040, 2658, 4045, 4871
18640, 2667, 2675, 2658, 4871
18641, 1836, 1828, 1819, 4870
18642, 1824, 1833, 1827, 4871
18643, 3303, 3095, 3308, 4870
18644, 1836, 3100, 1828, 4870
18645, 4034, 4040, 4045, 4871
18646, 4864, 4870, 4875, 4888
** ... 726 like lines cut
*ELEMENT, type=C3D4, ELSET=Volume27
19373, 3458, 4906, 4913, 4918
19374, 3459, 4911, 4906, 4918
19375, 4898, 4907, 3305, 4914
19376, 4901, 4907, 3312, 4916
19377, 3305, 4907, 4898, 4916
19378, 3458, 4913, 4903, 4918
19379, 3312, 4901, 3296, 4907
19380, 4903, 4906, 4897, 4918
19381, 4902, 4897, 4906, 4918
19382, 3459, 4906, 3450, 4918
19383, 4903, 4913, 4906, 4918
19384, 4906, 4911, 4902, 4918
19385, 3305, 3312, 4907, 4916
19386, 3458, 4918, 4903, 4924
19387, 4904, 4911, 3448, 4926
19388, 4903, 4913, 3458, 4924
19389, 3459, 4902, 4911, 4918
19390, 3444, 3447, 2633, 4919
19391, 4903, 4897, 4906, 4913
19392, 4897, 4902, 4906, 4911
** ... 727 like lines cut
*ELEMENT, type=C3D4, ELSET=Volume28
20120, 3433, 4947, 4941, 4948
20121, 3434, 4941, 4937, 4948
20122, 4932, 4937, 4941, 4948
20123, 3434, 3425, 4941, 4948
20124, 4932, 4941, 4939, 4948
20125, 4933, 4942, 3281, 4950
20126, 4937, 4944, 4932, 4949
20127, 4937, 4932, 4943, 4948
20128, 3433, 4939, 4947, 4948
20129, 4937, 4932, 4941, 4949
20130, 2301, 2319, 4943, 4953
20131, 1912, 4937, 4944, 4953
20132, 4939, 4943, 4932, 4948
20133, 4941, 4947, 4939, 4948
20134, 4938, 4932, 4944, 4949
20135, 4937, 4941, 3434, 4949
20136, 4938, 4941, 4932, 4949
20137, 4939, 4948, 3433, 4959
20138, 3282, 3281, 4942, 4950
20139, 3280, 4934, 4942, 4954
** ... 735 like lines cut
*ELEMENT, type=C3D4, ELSET=Volume29
20875, 3458, 4983, 4976, 4988
20876, 4976, 4981, 3459, 4988
20877, 3611, 4977, 4968, 4984
20878, 3618, 4977, 4971, 4986
20879, 3611, 4968, 4977, 4986
20880, 3458, 4974, 4983, 4988
20881, 3602, 4971, 3618, 4977
20882, 4967, 4976, 4974, 4988
20883, 4967, 4973, 4976, 4988
20884, 3611, 4977, 3618, 4986
20885, 4976, 4983, 4974, 4988
20886, 3459, 3450, 4976, 4988
20887, 4973, 4981, 4976, 4988
20888, 4974, 4988, 3458, 4994
20889, 3448, 4981, 4975, 4996
20890, 4973, 3459, 4981, 4988
20891, 3458, 4983, 4974, 4994
20892, 4974, 4976, 4967, 4983
20893, 4972, 4983, 3449, 4997
20894, 3448, 4976, 4975, 4981
** ... 728 like lines cut
*ELEMENT, type=C3D4, ELSET=Volume30
21623, 1697, 1694, 1698, 5025
21624, 1697, 2614, 5025, 5029
21625, 3436, 1713, 2340, 5010
21626, 2332, 3436, 2340, 5010
21627, 1697, 2614, 1694, 5025
21628, 2620, 5005, 5011, 5027
21629, 2627, 5011, 5008, 5027
21630, 5007, 5025, 5011, 5029
21631, 2627, 2611, 5011, 5027
21632, 2332, 3427, 3436, 5010
21633, 2620, 5011, 5005, 5018
21634, 2605, 1694, 2614, 5025
21635, 2620, 5011, 2611, 5027
21636, 2340, 2331, 2332, 5010
21637, 3436, 3427, 3430, 5010
21638, 2626, 2605, 2614, 5025
21639, 5007, 1698, 5016, 5025
21640, 2611, 5011, 2620, 5018
21641, 2627, 2620, 2611, 5027
21642, 5008, 5011, 5005, 5027
** ... 716 like lines cut
*ELSET,ELSET=PhysicalVolume1
1, 2, 3, 4, 5, 6, 7, 8, 9, 10, 
11, 12, 13, 14, 15, 16, 17, 18, 19, 20, 
21, 22, 23, 24, 25, 26, 27, 28, 29, 30, 
31, 32, 33, 34, 35, 36, 37, 38, 39, 40, 
41, 42, 43, 44, 45, 46, 47, 48, 49, 50, 
51, 52, 53, 54, 55, 56, 57, 58, 59, 60, 
61, 62, 63, 64, 65, 66, 67, 68, 69, 70, 
71, 72, 73, 74, 75, 76, 77, 78, 79, 80, 
81, 82, 83, 84, 85, 86, 87, 88, 89, 90, 
91, 92, 93, 94, 95, 96, 97, 98, 99, 100, 
101, 102, 103, 104, 105, 106, 107, 108, 109, 110, 
111, 112, 113, 114, 115, 116, 117, 118, 119, 120, 
121, 122, 123, 124, 125, 126, 127, 128, 129, 130, 
131, 132, 133, 134, 135, 136, 137, 138, 139, 140, 
141, 142, 143, 144, 145, 146, 147, 148, 149, 150, 
151, 152, 153, 154, 155, 156, 157, 158, 159, 160, 
161, 162, 163, 164, 165, 166, 167, 168, 169, 170, 
171, 172, 173, 174, 175, 176, 177, 178, 179, 180, 
181, 182, 183, 184, 185, 186, 187, 188, 189, 190, 
191, 192, 193, 194, 195, 196, 197, 198, 199, 200, 
** ... 71 like lines cut
*ELSET,ELSET=PhysicalVolume2
908, 909, 910, 911, 912, 913, 914, 915, 916, 917, 
918, 919, 920, 921, 922, 923, 924, 925, 926, 927, 
928, 929, 930, 931, 932, 933, 934, 935, 936, 937, 
938, 939, 940, 941, 942, 943, 944, 945, 946, 947, 
948, 949, 950, 951, 952, 953, 954, 955, 956, 957, 
958, 959, 960, 961, 962, 963, 964, 965, 966, 967, 
968, 969, 970, 971, 972, 973, 974, 975, 976, 977, 
978, 979, 980, 981, 982, 983, 984, 985, 986, 987, 
988, 989, 990, 991, 992, 993, 994, 995, 996, 997, 
998, 999, 1000, 1001, 1002, 1003, 1004, 1005, 1006, 1007, 
1008, 1009, 1010, 1011, 1012, 1013, 1014, 1015, 1016, 1017, 
1018, 1019, 1020, 1021, 1022, 1023, 1024, 1025, 1026, 1027, 
1028, 1029, 1030, 1031, 1032, 1033, 1034, 1035, 1036, 1037, 
1038, 1039, 1040, 1041, 1042, 1043, 1044, 1045, 1046, 1047, 
1048, 1049, 1050, 1051, 1052, 1053, 1054, 1055, 1056, 1057, 
1058, 1059, 1060, 1061, 1062, 1063, 1064, 1065, 1066, 1067, 
1068, 1069, 1070, 1071, 1072, 1073, 1074, 1075, 1076, 1077, 
1078, 1079, 1080, 1081, 1082, 1083, 1084, 1085, 1086, 1087, 
1088, 1089, 1090, 1091, 1092, 1093, 1094, 1095, 1096, 1097, 
1098, 1099, 1100, 1101, 1102, 1103, 1104, 1105, 1106, 1107, 
** ... 69 like lines cut
*ELSET,ELSET=PhysicalVolume3
1792, 1793, 1794, 1795, 1796, 1797, 1798, 1799, 1800, 1801, 
1802, 1803, 1804, 1805, 1806, 1807, 1808, 1809, 1810, 1811, 
1812, 1813, 1814, 1815, 1816, 1817, 1818, 1819, 1820, 1821, 
1822, 1823, 1824, 1825, 1826, 1827, 1828, 1829, 1830, 1831, 
1832, 1833, 1834, 1835, 1836, 1837, 1838, 1839, 1840, 1841, 
1842, 1843, 1844, 1845, 1846, 1847, 1848, 1849, 1850, 1851, 
1852, 1853, 1854, 1855, 1856, 1857, 1858, 1859, 1860, 1861, 
1862, 1863, 1864, 1865, 1866, 1867, 1868, 1869, 1870, 1871, 
1872, 1873, 1874, 1875, 1876, 1877, 1878, 1879, 1880, 1881, 
1882, 1883, 1884, 1885, 1886, 1887, 1888, 1889, 1890, 1891, 
1892, 1893, 1894, 1895, 1896, 1897, 1898, 1899, 1900, 1901, 
1902, 1903, 1904, 1905, 1906, 1907, 1908, 1909, 1910, 1911, 
1912, 1913, 1914, 1915, 1916, 1917, 1918, 1919, 1920, 1921, 
1922, 1923, 1924, 1925, 1926, 1927, 1928, 1929, 1930, 1931, 
1932, 1933, 1934, 1935, 1936, 1937, 1938, 1939, 1940, 1941, 
1942, 1943, 1944, 1945, 1946, 1947, 1948, 1949, 1950, 1951, 
1952, 1953, 1954, 1955, 1956, 1957, 1958, 1959, 1960, 1961, 
1962, 1963, 1964, 1965, 1966, 1967, 1968, 1969, 1970, 1971, 
1972, 1973, 1974, 1975, 1976, 1977, 1978, 1979, 1980, 1981, 
1982, 1983, 1984, 1985, 1986, 1987, 1988, 1989, 1990, 1991, 
** ... 68 like lines cut
*ELSET,ELSET=PhysicalVolume4
2672, 2673, 2674, 2675, 2676, 2677, 2678, 2679, 2680, 2681, 
2682, 2683, 2684, 2685, 2686, 2687, 2688, 2689, 2690, 2691, 
2692, 2693, 2694, 2695, 2696, 2697, 2698, 2699, 2700, 2701, 
2702, 2703, 2704, 2705, 2706, 2707, 2708, 2709, 2710, 2711, 
2712, 2713, 2714, 2715, 2716, 2717, 2718, 2719, 2720, 2721, 
2722, 2723, 2724, 2725, 2726, 2727, 2728, 2729, 2730, 2731, 
2732, 2733, 2734, 2735, 2736, 2737, 2738, 2739, 2740, 2741, 
2742, 2743, 2744, 2745, 2746, 2747, 2748, 2749, 2750, 2751, 
2752, 2753, 2754, 2755, 2756, 2757, 2758, 2759, 2760, 2761, 
2762, 2763, 2764, 2765, 2766, 2767, 2768, 2769, 2770, 2771, 
2772, 2773, 2774, 2775, 2776, 2777, 2778, 2779, 2780, 2781, 
2782, 2783, 2784, 2785, 2786, 2787, 2788, 2789, 2790, 2791, 
2792, 2793, 2794, 2795, 2796, 2797, 2798, 2799, 2800, 2801, 
2802, 2803, 2804, 2805, 2806, 2807, 2808, 2809, 2810, 2811, 
2812, 2813, 2814, 2815, 2816, 2817, 2818, 2819, 2820, 2821, 
2822, 2823, 2824, 2825, 2826, 2827, 2828, 2829, 2830, 2831, 
2832, 2833, 2834, 2835, 2836, 2837, 2838, 2839, 2840, 2841, 
2842, 2843, 2844, 2845, 2846, 2847, 2848, 2849, 2850, 2851, 
2852, 2853, 2854, 2855, 2856, 2857, 2858, 2859, 2860, 2861, 
2862, 2863, 2864, 2865, 2866, 2867, 2868, 2869, 2870, 2871, 
** ... 66 like lines cut
*ELSET,ELSET=PhysicalVolume5
3532, 3533, 3534, 3535, 3536, 3537, 3538, 3539, 3540, 3541, 
3542, 3543, 3544, 3545, 3546, 3547, 3548, 3549, 3550, 3551, 
3552, 3553, 3554, 3555, 3556, 3557, 3558, 3559, 3560, 3561, 
3562, 3563, 3564, 3565, 3566, 3567, 3568, 3569, 3570, 3571, 
3572, 3573, 3574, 3575, 3576, 3577, 3578, 3579, 3580, 3581, 
3582, 3583, 3584, 3585, 3586, 3587, 3588, 3589, 3590, 3591, 
3592, 3593, 3594, 3595, 3596, 3597, 3598, 3599, 3600, 3601, 
3602, 3603, 3604, 3605, 3606, 3607, 3608, 3609, 3610, 3611, 
3612, 3613, 3614, 3615, 3616, 3617, 3618, 3619, 3620, 3621, 
3622, 3623, 3624, 3625, 3626, 3627, 3628, 3629, 3630, 3631, 
3632, 3633, 3634, 3635, 3636, 3637, 3638, 3639, 3640, 3641, 
3642, 3643, 3644, 3645, 3646, 3647, 3648, 3649, 3650, 3651, 
3652, 3653, 3654, 3655, 3656, 3657, 3658, 3659, 3660, 3661, 
3662, 3663, 3664, 3665, 3666, 3667, 3668, 3669, 3670, 3671, 
3672, 3673, 3674, 3675, 3676, 3677, 3678, 3679, 3680, 3681, 
3682, 3683, 3684, 3685, 3686, 3687, 3688, 3689, 3690, 3691, 
3692, 3693, 3694, 3695, 3696, 3697, 3698, 3699, 3700, 3701, 
3702, 3703, 3704, 3705, 3706, 3707, 3708, 3709, 3710, 3711, 
3712, 3713, 3714, 3715, 3716, 3717, 3718, 3719, 3720, 3721, 
3722, 3723, 3724, 3725, 3726, 3727, 3728, 3729, 3730, 3731, 
** ... 71 like lines cut
*ELSET,ELSET=PhysicalVolume6
4433, 4434, 4435, 4436, 4437, 4438, 4439, 4440, 4441, 4442, 
4443, 4444, 4445, 4446, 4447, 4448, 4449, 4450, 4451, 4452, 
4453, 4454, 4455, 4456, 4457, 4458, 4459, 4460, 4461, 4462, 
4463, 4464, 4465, 4466, 4467, 4468, 4469, 4470, 4471, 4472, 
4473, 4474, 4475, 4476, 4477, 4478, 4479, 4480, 4481, 4482, 
4483, 4484, 4485, 4486, 4487, 4488, 4489, 4490, 4491, 4492, 
4493, 4494, 4495, 4496, 4497, 4498, 4499, 4500, 4501, 4502, 
4503, 4504, 4505, 4506, 4507, 4508, 4509, 4510, 4511, 4512, 
4513, 4514, 4515, 4516, 4517, 4518, 4519, 4520, 4521, 4522, 
4523, 4524, 4525, 4526, 4527, 4528, 4529, 4530, 4531, 4532, 
4533, 4534, 4535, 4536, 4537, 4538, 4539, 4540, 4541, 4542, 
4543, 4544, 4545, 4546, 4547, 4548, 4549, 4550, 4551, 4552, 
4553, 4554, 4555, 4556, 4557, 4558, 4559, 4560, 4561, 4562, 
4563, 4564, 4565, 4566, 4567, 4568, 4569, 4570, 4571, 4572, 
4573, 4574, 4575, 4576, 4577, 4578, 4579, 4580, 4581, 4582, 
4583, 4584, 4585, 4586, 4587, 4588, 4589, 4590, 4591, 4592, 
4593, 4594, 4595, 4596, 4597, 4598, 4599, 4600, 4601, 4602, 
4603, 4604, 4605, 4606, 4607, 4608, 4609, 4610, 4611, 4612, 
4613, 4614, 4615, 4616, 4617, 4618, 4619, 4620, 4621, 4622, 
4623, 4624, 4625, 4626, 4627, 4628, 4629, 4630, 4631, 4632, 
** ... 69 like lines cut
*ELSET,ELSET=PhysicalVolume7
5317, 5318, 5319, 5320, 5321, 5322, 5323, 5324, 5325, 5326, 
5327, 5328, 5329, 5330, 5331, 5332, 5333, 5334, 5335, 5336, 
5337, 5338, 5339, 5340, 5341, 5342, 5343, 5344, 5345, 5346, 
5347, 5348, 5349, 5350, 5351, 5352, 5353, 5354, 5355, 5356, 
5357, 5358, 5359, 5360, 5361, 5362, 5363, 5364, 5365, 5366, 
5367, 5368, 5369, 5370, 5371, 5372, 5373, 5374, 5375, 5376, 
5377, 5378, 5379, 5380, 5381, 5382, 5383, 5384, 5385, 5386, 
5387, 5388, 5389, 5390, 5391, 5392, 5393, 5394, 5395, 5396, 
5397, 5398, 5399, 5400, 5401, 5402, 5403, 5404, 5405, 5406, 
5407, 5408, 5409, 5410, 5411, 5412, 5413, 5414, 5415, 5416, 
5417, 5418, 5419, 5420, 5421, 5422, 5423, 5424, 5425, 5426, 
5427, 5428, 5429, 5430, 5431, 5432, 5433, 5434, 5435, 5436, 
5437, 5438, 5439, 5440, 5441, 5442, 5443, 5444, 5445, 5446, 
5447, 5448, 5449, 5450, 5451, 5452, 5453, 5454, 5455, 5456, 
5457, 5458, 5459, 5460, 5461, 5462, 5463, 5464, 5465, 5466, 
5467, 5468, 5469, 5470, 5471, 5472, 5473, 5474, 5475, 5476, 
5477, 5478, 5479, 5480, 5481, 5482, 5483, 5484, 5485, 5486, 
5487, 5488, 5489, 5490, 5491, 5492, 5493, 5494, 5495, 5496, 
5497, 5498, 5499, 5500, 5501, 5502, 5503, 5504, 5505, 5506, 
5507, 5508, 5509, 5510, 5511, 5512, 5513, 5514, 5515, 5516, 
** ... 66 like lines cut
*ELSET,ELSET=PhysicalVolume8
6172, 6173, 6174, 6175, 6176, 6177, 6178, 6179, 6180, 6181, 
6182, 6183, 6184, 6185, 6186, 6187, 6188, 6189, 6190, 6191, 
6192, 6193, 6194, 6195, 6196, 6197, 6198, 6199, 6200, 6201, 
6202, 6203, 6204, 6205, 6206, 6207, 6208, 6209, 6210, 6211, 
6212, 6213, 6214, 6215, 6216, 6217, 6218, 6219, 6220, 6221, 
6222, 6223, 6224, 6225, 6226, 6227, 6228, 6229, 6230, 6231, 
6232, 6233, 6234, 6235, 6236, 6237, 6238, 6239, 6240, 6241, 
6242, 6243, 6244, 6245, 6246, 6247, 6248, 6249, 6250, 6251, 
6252, 6253, 6254, 6255, 6256, 6257, 6258, 6259, 6260, 6261, 
6262, 6263, 6264, 6265, 6266, 6267, 6268, 6269, 6270, 6271, 
6272, 6273, 6274, 6275, 6276, 6277, 6278, 6279, 6280, 6281, 
6282, 6283, 6284, 6285, 6286, 6287, 6288, 6289, 6290, 6291, 
6292, 6293, 6294, 6295, 6296, 6297, 6298, 6299, 6300, 6301, 
6302, 6303, 6304, 6305, 6306, 6307, 6308, 6309, 6310, 6311, 
6312, 6313, 6314, 6315, 6316, 6317, 6318, 6319, 6320, 6321, 
6322, 6323, 6324, 6325, 6326, 6327, 6328, 6329, 6330, 6331, 
6332, 6333, 6334, 6335, 6336, 6337, 6338, 6339, 6340, 6341, 
6342, 6343, 6344, 6345, 6346, 6347, 6348, 6349, 6350, 6351, 
6352, 6353, 6354, 6355, 6356, 6357, 6358, 6359, 6360, 6361, 
6362, 6363, 6364, 6365, 6366, 6367, 6368, 6369, 6370, 6371, 
** ... 65 like lines cut
*ELSET,ELSET=PhysicalVolume9
7014, 7015, 7016, 7017, 7018, 7019, 7020, 7021, 7022, 7023, 
7024, 7025, 7026, 7027, 7028, 7029, 7030, 7031, 7032, 7033, 
7034, 7035, 7036, 7037, 7038, 7039, 7040, 7041, 7042, 7043, 
7044, 7045, 7046, 7047, 7048, 7049, 7050, 7051, 7052, 7053, 
7054, 7055, 7056, 7057, 7058, 7059, 7060, 7061, 7062, 7063, 
7064, 7065, 7066, 7067, 7068, 7069, 7070, 7071, 7072, 7073, 
7074, 7075, 7076, 7077, 7078, 7079, 7080, 7081, 7082, 7083, 
7084, 7085, 7086, 7087, 7088, 7089, 7090, 7091, 7092, 7093, 
7094, 7095, 7096, 7097, 7098, 7099, 7100, 7101, 7102, 7103, 
7104, 7105, 7106, 7107, 7108, 7109, 7110, 7111, 7112, 7113, 
7114, 7115, 7116, 7117, 7118, 7119, 7120, 7121, 7122, 7123, 
7124, 7125, 7126, 7127, 7128, 7129, 7130, 7131, 7132, 7133, 
7134, 7135, 7136, 7137, 7138, 7139, 7140, 7141, 7142, 7143, 
7144, 7145, 7146, 7147, 7148, 7149, 7150, 7151, 7152, 7153, 
7154, 7155, 7156, 7157, 7158, 7159, 7160, 7161, 7162, 7163, 
7164, 7165, 7166, 7167, 7168, 7169, 7170, 7171, 7172, 7173, 
7174, 7175, 7176, 7177, 7178, 7179, 7180, 7181, 7182, 7183, 
7184, 7185, 7186, 7187, 7188, 7189, 7190, 7191, 7192, 7193, 
7194, 7195, 7196, 7197, 7198, 7199, 7200, 7201, 7202, 7203, 
7204, 7205, 7206, 7207, 7208, 7209, 7210, 7211, 7212, 7213, 
** ... 64 like lines cut
*ELSET,ELSET=PhysicalVolume10
7846, 7847, 7848, 7849, 7850, 7851, 7852, 7853, 7854, 7855, 
7856, 7857, 7858, 7859, 7860, 7861, 7862, 7863, 7864, 7865, 
7866, 7867, 7868, 7869, 7870, 7871, 7872, 7873, 7874, 7875, 
7876, 7877, 7878, 7879, 7880, 7881, 7882, 7883, 7884, 7885, 
7886, 7887, 7888, 7889, 7890, 7891, 7892, 7893, 7894, 7895, 
7896, 7897, 7898, 7899, 7900, 7901, 7902, 7903, 7904, 7905, 
7906, 7907, 7908, 7909, 7910, 7911, 7912, 7913, 7914, 7915, 
7916, 7917, 7918, 7919, 7920, 7921, 7922, 7923, 7924, 7925, 
7926, 7927, 7928, 7929, 7930, 7931, 7932, 7933, 7934, 7935, 
7936, 7937, 7938, 7939, 7940, 7941, 7942, 7943, 7944, 7945, 
7946, 7947, 7948, 7949, 7950, 7951, 7952, 7953, 7954, 7955, 
7956, 7957, 7958, 7959, 7960, 7961, 7962, 7963, 7964, 7965, 
7966, 7967, 7968, 7969, 7970, 7971, 7972, 7973, 7974, 7975, 
7976, 7977, 7978, 7979, 7980, 7981, 7982, 7983, 7984, 7985, 
7986, 7987, 7988, 7989, 7990, 7991, 7992, 7993, 7994, 7995, 
7996, 7997, 7998, 7999, 8000, 8001, 8002, 8003, 8004, 8005, 
8006, 8007, 8008, 8009, 8010, 8011, 8012, 8013, 8014, 8015, 
8016, 8017, 8018, 8019, 8020, 8021, 8022, 8023, 8024, 8025, 
8026, 8027, 8028, 8029, 8030, 8031, 8032, 8033, 8034, 8035, 
8036, 8037, 8038, 8039, 8040, 8041, 8042, 8043, 8044, 8045, 
** ... 63 like lines cut
*ELSET,ELSET=PhysicalVolume11
8676, 8677, 8678, 8679, 8680, 8681, 8682, 8683, 8684, 8685, 
8686, 8687, 8688, 8689, 8690, 8691, 8692, 8693, 8694, 8695, 
8696, 8697, 8698, 8699, 8700, 8701, 8702, 8703, 8704, 8705, 
8706, 8707, 8708, 8709, 8710, 8711, 8712, 8713, 8714, 8715, 
8716, 8717, 8718, 8719, 8720, 8721, 8722, 8723, 8724, 8725, 
8726, 8727, 8728, 8729, 8730, 8731, 8732, 8733, 8734, 8735, 
8736, 8737, 8738, 8739, 8740, 8741, 8742, 8743, 8744, 8745, 
8746, 8747, 8748, 8749, 8750, 8751, 8752, 8753, 8754, 8755, 
8756, 8757, 8758, 8759, 8760, 8761, 8762, 8763, 8764, 8765, 
8766, 8767, 8768, 8769, 8770, 8771, 8772, 8773, 8774, 8775, 
8776, 8777, 8778, 8779, 8780, 8781, 8782, 8783, 8784, 8785, 
8786, 8787, 8788, 8789, 8790, 8791, 8792, 8793, 8794, 8795, 
8796, 8797, 8798, 8799, 8800, 8801, 8802, 8803, 8804, 8805, 
8806, 8807, 8808, 8809, 8810, 8811, 8812, 8813, 8814, 8815, 
8816, 8817, 8818, 8819, 8820, 8821, 8822, 8823, 8824, 8825, 
8826, 8827, 8828, 8829, 8830, 8831, 8832, 8833, 8834, 8835, 
8836, 8837, 8838, 8839, 8840, 8841, 8842, 8843, 8844, 8845, 
8846, 8847, 8848, 8849, 8850, 8851, 8852, 8853, 8854, 8855, 
8856, 8857, 8858, 8859, 8860, 8861, 8862, 8863, 8864, 8865, 
8866, 8867, 8868, 8869, 8870, 8871, 8872, 8873, 8874, 8875, 
** ... 21 like lines cut
*ELSET,ELSET=PhysicalVolume12
9082, 9083, 9084, 9085, 9086, 9087, 9088, 9089, 9090, 9091, 
9092, 9093, 9094, 9095, 9096, 9097, 9098, 9099, 9100, 9101, 
9102, 9103, 9104, 9105, 9106, 9107, 9108, 9109, 9110, 9111, 
9112, 9113, 9114, 9115, 9116, 9117, 9118, 9119, 9120, 9121, 
9122, 9123, 9124, 9125, 9126, 9127, 9128, 9129, 9130, 9131, 
9132, 9133, 9134, 9135, 9136, 9137, 9138, 9139, 9140, 9141, 
9142, 9143, 9144, 9145, 9146, 9147, 9148, 9149, 9150, 9151, 
9152, 9153, 9154, 9155, 9156, 9157, 9158, 9159, 9160, 9161, 
9162, 9163, 9164, 9165, 9166, 9167, 9168, 9169, 9170, 9171, 
9172, 9173, 9174, 9175, 9176, 9177, 9178, 9179, 9180, 9181, 
9182, 9183, 9184, 9185, 9186, 9187, 9188, 9189, 9190, 9191, 
9192, 9193, 9194, 9195, 9196, 9197, 9198, 9199, 9200, 9201, 
9202, 9203, 9204, 9205, 9206, 9207, 9208, 9209, 9210, 9211, 
9212, 9213, 9214, 9215, 9216, 9217, 9218, 9219, 9220, 9221, 
9222, 9223, 9224, 9225, 9226, 9227, 9228, 9229, 9230, 9231, 
9232, 9233, 9234, 9235, 9236, 9237, 9238, 9239, 9240, 9241, 
9242, 9243, 9244, 9245, 9246, 9247, 9248, 9249, 9250, 9251, 
9252, 9253, 9254, 9255, 9256, 9257, 9258, 9259, 9260, 9261, 
9262, 9263, 9264, 9265, 9266, 9267, 9268, 9269, 9270, 9271, 
9272, 9273, 9274, 9275, 9276, 9277, 9278, 9279, 9280, 9281, 
** ... 21 like lines cut
*ELSET,ELSET=PhysicalVolume13
9488, 9489, 9490, 9491, 9492, 9493, 9494, 9495, 9496, 9497, 
9498, 9499, 9500, 9501, 9502, 9503, 9504, 9505, 9506, 9507, 
9508, 9509, 9510, 9511, 9512, 9513, 9514, 9515, 9516, 9517, 
9518, 9519, 9520, 9521, 9522, 9523, 9524, 9525, 9526, 9527, 
9528, 9529, 9530, 9531, 9532, 9533, 9534, 9535, 9536, 9537, 
9538, 9539, 9540, 9541, 9542, 9543, 9544, 9545, 9546, 9547, 
9548, 9549, 9550, 9551, 9552, 9553, 9554, 9555, 9556, 9557, 
9558, 9559, 9560, 9561, 9562, 9563, 9564, 9565, 9566, 9567, 
9568, 9569, 9570, 9571, 9572, 9573, 9574, 9575, 9576, 9577, 
9578, 9579, 9580, 9581, 9582, 9583, 9584, 9585, 9586, 9587, 
9588, 9589, 9590, 9591, 9592, 9593, 9594, 9595, 9596, 9597, 
9598, 9599, 9600, 9601, 9602, 9603, 9604, 9605, 9606, 9607, 
9608, 9609, 9610, 9611, 9612, 9613, 9614, 9615, 9616, 9617, 
9618, 9619, 9620, 9621, 9622, 9623, 9624, 9625, 9626, 9627, 
9628, 9629, 9630, 9631, 9632, 9633, 9634, 9635, 9636, 9637, 
9638, 9639, 9640, 9641, 9642, 9643, 9644, 9645, 9646, 9647, 
9648, 9649, 9650, 9651, 9652, 9653, 9654, 9655, 9656, 9657, 
9658, 9659, 9660, 9661, 9662, 9663, 9664, 9665, 9666, 9667, 
9668, 9669, 9670, 9671, 9672, 9673, 9674, 9675, 9676, 9677, 
9678, 9679, 9680, 9681, 9682, 9683, 9684, 9685, 9686, 9687, 
** ... 21 like lines cut
*ELSET,ELSET=PhysicalVolume14
9894, 9895, 9896, 9897, 9898, 9899, 9900, 9901, 9902, 9903, 
9904, 9905, 9906, 9907, 9908, 9909, 9910, 9911, 9912, 9913, 
9914, 9915, 9916, 9917, 9918, 9919, 9920, 9921, 9922, 9923, 
9924, 9925, 9926, 9927, 9928, 9929, 9930, 9931, 9932, 9933, 
9934, 9935, 9936, 9937, 9938, 9939, 9940, 9941, 9942, 9943, 
9944, 9945, 9946, 9947, 9948, 9949, 9950, 9951, 9952, 9953, 
9954, 9955, 9956, 9957, 9958, 9959, 9960, 9961, 9962, 9963, 
9964, 9965, 9966, 9967, 9968, 9969, 9970, 9971, 9972, 9973, 
9974, 9975, 9976, 9977, 9978, 9979, 9980, 9981, 9982, 9983, 
9984, 9985, 9986, 9987, 9988, 9989, 9990, 9991, 9992, 9993, 
9994, 9995, 9996, 9997, 9998, 9999, 10000, 10001, 10002, 10003, 
10004, 10005, 10006, 10007, 10008, 10009, 10010, 10011, 10012, 10013, 
10014, 10015, 10016, 10017, 10018, 10019, 10020, 10021, 10022, 10023, 
10024, 10025, 10026, 10027, 10028, 10029, 10030, 10031, 10032, 10033, 
10034, 10035, 10036, 10037, 10038, 10039, 10040, 10041, 10042, 10043, 
10044, 10045, 10046, 10047, 10048, 10049, 10050, 10051, 10052, 10053, 
10054, 10055, 10056, 10057, 10058, 10059, 10060, 10061, 10062, 10063, 
10064, 10065, 10066, 10067, 10068, 10069, 10070, 10071, 10072, 10073, 
10074, 10075, 10076, 10077, 10078, 10079, 10080, 10081, 10082, 10083, 
10084, 10085, 10086, 10087, 10088, 10089, 10090, 10091, 10092, 10093, 
** ... 22 like lines cut
*ELSET,ELSET=PhysicalVolume15
10309, 10310, 10311, 10312, 10313, 10314, 10315, 10316, 10317, 10318, 
10319, 10320, 10321, 10322, 10323, 10324, 10325, 10326, 10327, 10328, 
10329, 10330, 10331, 10332, 10333, 10334, 10335, 10336, 10337, 10338, 
10339, 10340, 10341, 10342, 10343, 10344, 10345, 10346, 10347, 10348, 
10349, 10350, 10351, 10352, 10353, 10354, 10355, 10356, 10357, 10358, 
10359, 10360, 10361, 10362, 10363, 10364, 10365, 10366, 10367, 10368, 
10369, 10370, 10371, 10372, 10373, 10374, 10375, 10376, 10377, 10378, 
10379, 10380, 10381, 10382, 10383, 10384, 10385, 10386, 10387, 10388, 
10389, 10390, 10391, 10392, 10393, 10394, 10395, 10396, 10397, 10398, 
10399, 10400, 10401, 10402, 10403, 10404, 10405, 10406, 10407, 10408, 
10409, 10410, 10411, 10412, 10413, 10414, 10415, 10416, 10417, 10418, 
10419, 10420, 10421, 10422, 10423, 10424, 10425, 10426, 10427, 10428, 
10429, 10430, 10431, 10432, 10433, 10434, 10435, 10436, 10437, 10438, 
10439, 10440, 10441, 10442, 10443, 10444, 10445, 10446, 10447, 10448, 
10449, 10450, 10451, 10452, 10453, 10454, 10455, 10456, 10457, 10458, 
10459, 10460, 10461, 10462, 10463, 10464, 10465, 10466, 10467, 10468, 
10469, 10470, 10471, 10472, 10473, 10474, 10475, 10476, 10477, 10478, 
10479, 10480, 10481, 10482, 10483, 10484, 10485, 10486, 10487, 10488, 
10489, 10490, 10491, 10492, 10493, 10494, 10495, 10496, 10497, 10498, 
10499, 10500, 10501, 10502, 10503, 10504, 10505, 10506, 10507, 10508, 
** ... 56 like lines cut
*ELSET,ELSET=PhysicalVolume16
11068, 11069, 11070, 11071, 11072, 11073, 11074, 11075, 11076, 11077, 
11078, 11079, 11080, 11081, 11082, 11083, 11084, 11085, 11086, 11087, 
11088, 11089, 11090, 11091, 11092, 11093, 11094, 11095, 11096, 11097, 
11098, 11099, 11100, 11101, 11102, 11103, 11104, 11105, 11106, 11107, 
11108, 11109, 11110, 11111, 11112, 11113, 11114, 11115, 11116, 11117, 
11118, 11119, 11120, 11121, 11122, 11123, 11124, 11125, 11126, 11127, 
11128, 11129, 11130, 11131, 11132, 11133, 11134, 11135, 11136, 11137, 
11138, 11139, 11140, 11141, 11142, 11143, 11144, 11145, 11146, 11147, 
11148, 11149, 11150, 11151, 11152, 11153, 11154, 11155, 11156, 11157, 
11158, 11159, 11160, 11161, 11162, 11163, 11164, 11165, 11166, 11167, 
11168, 11169, 11170, 11171, 11172, 11173, 11174, 11175, 11176, 11177, 
11178, 11179, 11180, 11181, 11182, 11183, 11184, 11185, 11186, 11187, 
11188, 11189, 11190, 11191, 11192, 11193, 11194, 11195, 11196, 11197, 
11198, 11199, 11200, 11201, 11202, 11203, 11204, 11205, 11206, 11207, 
11208, 11209, 11210, 11211, 11212, 11213, 11214, 11215, 11216, 11217, 
11218, 11219, 11220, 11221, 11222, 11223, 11224, 11225, 11226, 11227, 
11228, 11229, 11230, 11231, 11232, 11233, 11234, 11235, 11236, 11237, 
11238, 11239, 11240, 11241, 11242, 11243, 11244, 11245, 11246, 11247, 
11248, 11249, 11250, 11251, 11252, 11253, 11254, 11255, 11256, 11257, 
11258, 11259, 11260, 11261, 11262, 11263, 11264, 11265, 11266, 11267, 
** ... 56 like lines cut
*ELSET,ELSET=PhysicalVolume17
11827, 11828, 11829, 11830, 11831, 11832, 11833, 11834, 11835, 11836, 
11837, 11838, 11839, 11840, 11841, 11842, 11843, 11844, 11845, 11846, 
11847, 11848, 11849, 11850, 11851, 11852, 11853, 11854, 11855, 11856, 
11857, 11858, 11859, 11860, 11861, 11862, 11863, 11864, 11865, 11866, 
11867, 11868, 11869, 11870, 11871, 11872, 11873, 11874, 11875, 11876, 
11877, 11878, 11879, 11880, 11881, 11882, 11883, 11884, 11885, 11886, 
11887, 11888, 11889, 11890, 11891, 11892, 11893, 11894, 11895, 11896, 
11897, 11898, 11899, 11900, 11901, 11902, 11903, 11904, 11905, 11906, 
11907, 11908, 11909, 11910, 11911, 11912, 11913, 11914, 11915, 11916, 
11917, 11918, 11919, 11920, 11921, 11922, 11923, 11924, 11925, 11926, 
11927, 11928, 11929, 11930, 11931, 11932, 11933, 11934, 11935, 11936, 
11937, 11938, 11939, 11940, 11941, 11942, 11943, 11944, 11945, 11946, 
11947, 11948, 11949, 11950, 11951, 11952, 11953, 11954, 11955, 11956, 
11957, 11958, 11959, 11960, 11961, 11962, 11963, 11964, 11965, 11966, 
11967, 11968, 11969, 11970, 11971, 11972, 11973, 11974, 11975, 11976, 
11977, 11978, 11979, 11980, 11981, 11982, 11983, 11984, 11985, 11986, 
11987, 11988, 11989, 11990, 11991, 11992, 11993, 11994, 11995, 11996, 
11997, 11998, 11999, 12000, 12001, 12002, 12003, 12004, 12005, 12006, 
12007, 12008, 12009, 12010, 12011, 12012, 12013, 12014, 12015, 12016, 
12017, 12018, 12019, 12020, 12021, 12022, 12023, 12024, 12025, 12026, 
** ... 56 like lines cut
*ELSET,ELSET=PhysicalVolume18
12578, 12579, 12580, 12581, 12582, 12583, 12584, 12585, 12586, 12587, 
12588, 12589, 12590, 12591, 12592, 12593, 12594, 12595, 12596, 12597, 
12598, 12599, 12600, 12601, 12602, 12603, 12604, 12605, 12606, 12607, 
12608, 12609, 12610, 12611, 12612, 12613, 12614, 12615, 12616, 12617, 
12618, 12619, 12620, 12621, 12622, 12623, 12624, 12625, 12626, 12627, 
12628, 12629, 12630, 12631, 12632, 12633, 12634, 12635, 12636, 12637, 
12638, 12639, 12640, 12641, 12642, 12643, 12644, 12645, 12646, 12647, 
12648, 12649, 12650, 12651, 12652, 12653, 12654, 12655, 12656, 12657, 
12658, 12659, 12660, 12661, 12662, 12663, 12664, 12665, 12666, 12667, 
12668, 12669, 12670, 12671, 12672, 12673, 12674, 12675, 12676, 12677, 
12678, 12679, 12680, 12681, 12682, 12683, 12684, 12685, 12686, 12687, 
12688, 12689, 12690, 12691, 12692, 12693, 12694, 12695, 12696, 12697, 
12698, 12699, 12700, 12701, 12702, 12703, 12704, 12705, 12706, 12707, 
12708, 12709, 12710, 12711, 12712, 12713, 12714, 12715, 12716, 12717, 
12718, 12719, 12720, 12721, 12722, 12723, 12724, 12725, 12726, 12727, 
12728, 12729, 12730, 12731, 12732, 12733, 12734, 12735, 12736, 12737, 
12738, 12739, 12740, 12741, 12742, 12743, 12744, 12745, 12746, 12747, 
12748, 12749, 12750, 12751, 12752, 12753, 12754, 12755, 12756, 12757, 
12758, 12759, 12760, 12761, 12762, 12763, 12764, 12765, 12766, 12767, 
12768, 12769, 12770, 12771, 12772, 12773, 12774, 12775, 12776, 12777, 
** ... 56 like lines cut
*ELSET,ELSET=PhysicalVolume19
13333, 13334, 13335, 13336, 13337, 13338, 13339, 13340, 13341, 13342, 
13343, 13344, 13345, 13346, 13347, 13348, 13349, 13350, 13351, 13352, 
13353, 13354, 13355, 13356, 13357, 13358, 13359, 13360, 13361, 13362, 
13363, 13364, 13365, 13366, 13367, 13368, 13369, 13370, 13371, 13372, 
13373, 13374, 13375, 13376, 13377, 13378, 13379, 13380, 13381, 13382, 
13383, 13384, 13385, 13386, 13387, 13388, 13389, 13390, 13391, 13392, 
13393, 13394, 13395, 13396, 13397, 13398, 13399, 13400, 13401, 13402, 
13403, 13404, 13405, 13406, 13407, 13408, 13409, 13410, 13411, 13412, 
13413, 13414, 13415, 13416, 13417, 13418, 13419, 13420, 13421, 13422, 
13423, 13424, 13425, 13426, 13427, 13428, 13429, 13430, 13431, 13432, 
13433, 13434, 13435, 13436, 13437, 13438, 13439, 13440, 13441, 13442, 
13443, 13444, 13445, 13446, 13447, 13448, 13449, 13450, 13451, 13452, 
13453, 13454, 13455, 13456, 13457, 13458, 13459, 13460, 13461, 13462, 
13463, 13464, 13465, 13466, 13467, 13468, 13469, 13470, 13471, 13472, 
13473, 13474, 13475, 13476, 13477, 13478, 13479, 13480, 13481, 13482, 
13483, 13484, 13485, 13486, 13487, 13488, 13489, 13490, 13491, 13492, 
13493, 13494, 13495, 13496, 13497, 13498, 13499, 13500, 13501, 13502, 
13503, 13504, 13505, 13506, 13507, 13508, 13509, 13510, 13511, 13512, 
13513, 13514, 13515, 13516, 13517, 13518, 13519, 13520, 13521, 13522, 
13523, 13524, 13525, 13526, 13527, 13528, 13529, 13530, 13531, 13532, 
** ... 53 like lines cut
*ELSET,ELSET=PhysicalVolume20
14060, 14061, 14062, 14063, 14064, 14065, 14066, 14067, 14068, 14069, 
14070, 14071, 14072, 14073, 14074, 14075, 14076, 14077, 14078, 14079, 
14080, 14081, 14082, 14083, 14084, 14085, 14086, 14087, 14088, 14089, 
14090, 14091, 14092, 14093, 14094, 14095, 14096, 14097, 14098, 14099, 
14100, 14101, 14102, 14103, 14104, 14105, 14106, 14107, 14108, 14109, 
14110, 14111, 14112, 14113, 14114, 14115, 14116, 14117, 14118, 14119, 
14120, 14121, 14122, 14123, 14124, 14125, 14126, 14127, 14128, 14129, 
14130, 14131, 14132, 14133, 14134, 14135, 14136, 14137, 14138, 14139, 
14140, 14141, 14142, 14143, 14144, 14145, 14146, 14147, 14148, 14149, 
14150, 14151, 14152, 14153, 14154, 14155, 14156, 14157, 14158, 14159, 
14160, 14161, 14162, 14163, 14164, 14165, 14166, 14167, 14168, 14169, 
14170, 14171, 14172, 14173, 14174, 14175, 14176, 14177, 14178, 14179, 
14180, 14181, 14182, 14183, 14184, 14185, 14186, 14187, 14188, 14189, 
14190, 14191, 14192, 14193, 14194, 14195, 14196, 14197, 14198, 14199, 
14200, 14201, 14202, 14203, 14204, 14205, 14206, 14207, 14208, 14209, 
14210, 14211, 14212, 14213, 14214, 14215, 14216, 14217, 14218, 14219, 
14220, 14221, 14222, 14223, 14224, 14225, 14226, 14227, 14228, 14229, 
14230, 14231, 14232, 14233, 14234, 14235, 14236, 14237, 14238, 14239, 
14240, 14241, 14242, 14243, 14244, 14245, 14246, 14247, 14248, 14249, 
14250, 14251, 14252, 14253, 14254, 14255, 14256, 14257, 14258, 14259, 
** ... 52 like lines cut
*ELSET,ELSET=PhysicalVolume21
14774, 14775, 14776, 14777, 14778, 14779, 14780, 14781, 14782, 14783, 
14784, 14785, 14786, 14787, 14788, 14789, 14790, 14791, 14792, 14793, 
14794, 14795, 14796, 14797, 14798, 14799, 14800, 14801, 14802, 14803, 
14804, 14805, 14806, 14807, 14808, 14809, 14810, 14811, 14812, 14813, 
14814, 14815, 14816, 14817, 14818, 14819, 14820, 14821, 14822, 14823, 
14824, 14825, 14826, 14827, 14828, 14829, 14830, 14831, 14832, 14833, 
14834, 14835, 14836, 14837, 14838, 14839, 14840, 14841, 14842, 14843, 
14844, 14845, 14846, 14847, 14848, 14849, 14850, 14851, 14852, 14853, 
14854, 14855, 14856, 14857, 14858, 14859, 14860, 14861, 14862, 14863, 
14864, 14865, 14866, 14867, 14868, 14869, 14870, 14871, 14872, 14873, 
14874, 14875, 14876, 14877, 14878, 14879, 14880, 14881, 14882, 14883, 
14884, 14885, 14886, 14887, 14888, 14889, 14890, 14891, 14892, 14893, 
14894, 14895, 14896, 14897, 14898, 14899, 14900, 14901, 14902, 14903, 
14904, 14905, 14906, 14907, 14908, 14909, 14910, 14911, 14912, 14913, 
14914, 14915, 14916, 14917, 14918, 14919, 14920, 14921, 14922, 14923, 
14924, 14925, 14926, 14927, 14928, 14929, 14930, 14931, 14932, 14933, 
14934, 14935, 14936, 14937, 14938, 14939, 14940, 14941, 14942, 14943, 
14944, 14945, 14946, 14947, 14948, 14949, 14950, 14951, 14952, 14953, 
14954, 14955, 14956, 14957, 14958, 14959, 14960, 14961, 14962, 14963, 
14964, 14965, 14966, 14967, 14968, 14969, 14970, 14971, 14972, 14973, 
** ... 57 like lines cut
*ELSET,ELSET=PhysicalVolume22
15539, 15540, 15541, 15542, 15543, 15544, 15545, 15546, 15547, 15548, 
15549, 15550, 15551, 15552, 15553, 15554, 15555, 15556, 15557, 15558, 
15559, 15560, 15561, 15562, 15563, 15564, 15565, 15566, 15567, 15568, 
15569, 15570, 15571, 15572, 15573, 15574, 15575, 15576, 15577, 15578, 
15579, 15580, 15581, 15582, 15583, 15584, 15585, 15586, 15587, 15588, 
15589, 15590, 15591, 15592, 15593, 15594, 15595, 15596, 15597, 15598, 
15599, 15600, 15601, 15602, 15603, 15604, 15605, 15606, 15607, 15608, 
15609, 15610, 15611, 15612, 15613, 15614, 15615, 15616, 15617, 15618, 
15619, 15620, 15621, 15622, 15623, 15624, 15625, 15626, 15627, 15628, 
15629, 15630, 15631, 15632, 15633, 15634, 15635, 15636, 15637, 15638, 
15639, 15640, 15641, 15642, 15643, 15644, 15645, 15646, 15647, 15648, 
15649, 15650, 15651, 15652, 15653, 15654, 15655, 15656, 15657, 15658, 
15659, 15660, 15661, 15662, 15663, 15664, 15665, 15666, 15667, 15668, 
15669, 15670, 15671, 15672, 15673, 15674, 15675, 15676, 15677, 15678, 
15679, 15680, 15681, 15682, 15683, 15684, 15685, 15686, 15687, 15688, 
15689, 15690, 15691, 15692, 15693, 15694, 15695, 15696, 15697, 15698, 
15699, 15700, 15701, 15702, 15703, 15704, 15705, 15706, 15707, 15708, 
15709, 15710, 15711, 15712, 15713, 15714, 15715, 15716, 15717, 15718, 
15719, 15720, 15721, 15722, 15723, 15724, 15725, 15726, 15727, 15728, 
15729, 15730, 15731, 15732, 15733, 15734, 15735, 15736, 15737, 15738, 
** ... 56 like lines cut
*ELSET,ELSET=PhysicalVolume23
16298, 16299, 16300, 16301, 16302, 16303, 16304, 16305, 16306, 16307, 
16308, 16309, 16310, 16311, 16312, 16313, 16314, 16315, 16316, 16317, 
16318, 16319, 16320, 16321, 16322, 16323, 16324, 16325, 16326, 16327, 
16328, 16329, 16330, 16331, 16332, 16333, 16334, 16335, 16336, 16337, 
16338, 16339, 16340, 16341, 16342, 16343, 16344, 16345, 16346, 16347, 
16348, 16349, 16350, 16351, 16352, 16353, 16354, 16355, 16356, 16357, 
16358, 16359, 16360, 16361, 16362, 16363, 16364, 16365, 16366, 16367, 
16368, 16369, 16370, 16371, 16372, 16373, 16374, 16375, 16376, 16377, 
16378, 16379, 16380, 16381, 16382, 16383, 16384, 16385, 16386, 16387, 
16388, 16389, 16390, 16391, 16392, 16393, 16394, 16395, 16396, 16397, 
16398, 16399, 16400, 16401, 16402, 16403, 16404, 16405, 16406, 16407, 
16408, 16409, 16410, 16411, 16412, 16413, 16414, 16415, 16416, 16417, 
16418, 16419, 16420, 16421, 16422, 16423, 16424, 16425, 16426, 16427, 
16428, 16429, 16430, 16431, 16432, 16433, 16434, 16435, 16436, 16437, 
16438, 16439, 16440, 16441, 16442, 16443, 16444, 16445, 16446, 16447, 
16448, 16449, 16450, 16451, 16452, 16453, 16454, 16455, 16456, 16457, 
16458, 16459, 16460, 16461, 16462, 16463, 16464, 16465, 16466, 16467, 
16468, 16469, 16470, 16471, 16472, 16473, 16474, 16475, 16476, 16477, 
16478, 16479, 16480, 16481, 16482, 16483, 16484, 16485, 16486, 16487, 
16488, 16489, 16490, 16491, 16492, 16493, 16494, 16495, 16496, 16497, 
** ... 58 like lines cut
*ELSET,ELSET=PhysicalVolume24
17077, 17078, 17079, 17080, 17081, 17082, 17083, 17084, 17085, 17086, 
17087, 17088, 17089, 17090, 17091, 17092, 17093, 17094, 17095, 17096, 
17097, 17098, 17099, 17100, 17101, 17102, 17103, 17104, 17105, 17106, 
17107, 17108, 17109, 17110, 17111, 17112, 17113, 17114, 17115, 17116, 
17117, 17118, 17119, 17120, 17121, 17122, 17123, 17124, 17125, 17126, 
17127, 17128, 17129, 17130, 17131, 17132, 17133, 17134, 17135, 17136, 
17137, 17138, 17139, 17140, 17141, 17142, 17143, 17144, 17145, 17146, 
17147, 17148, 17149, 17150, 17151, 17152, 17153, 17154, 17155, 17156, 
17157, 17158, 17159, 17160, 17161, 17162, 17163, 17164, 17165, 17166, 
17167, 17168, 17169, 17170, 17171, 17172, 17173, 17174, 17175, 17176, 
17177, 17178, 17179, 17180, 17181, 17182, 17183, 17184, 17185, 17186, 
17187, 17188, 17189, 17190, 17191, 17192, 17193, 17194, 17195, 17196, 
17197, 17198, 17199, 17200, 17201, 17202, 17203, 17204, 17205, 17206, 
17207, 17208, 17209, 17210, 17211, 17212, 17213, 17214, 17215, 17216, 
17217, 17218, 17219, 17220, 17221, 17222, 17223, 17224, 17225, 17226, 
17227, 17228, 17229, 17230, 17231, 17232, 17233, 17234, 17235, 17236, 
17237, 17238, 17239, 17240, 17241, 17242, 17243, 17244, 17245, 17246, 
17247, 17248, 17249, 17250, 17251, 17252, 17253, 17254, 17255, 17256, 
17257, 17258, 17259, 17260, 17261, 17262, 17263, 17264, 17265, 17266, 
17267, 17268, 17269, 17270, 17271, 17272, 17273, 17274, 17275, 17276, 
** ... 58 like lines cut
*ELSET,ELSET=PhysicalVolume25
17849, 17850, 17851, 17852, 17853, 17854, 17855, 17856, 17857, 17858, 
17859, 17860, 17861, 17862, 17863, 17864, 17865, 17866, 17867, 17868, 
17869, 17870, 17871, 17872, 17873, 17874, 17875, 17876, 17877, 17878, 
17879, 17880, 17881, 17882, 17883, 17884, 17885, 17886, 17887, 17888, 
17889, 17890, 17891, 17892, 17893, 17894, 17895, 17896, 17897, 17898, 
17899, 17900, 17901, 17902, 17903, 17904, 17905, 17906, 17907, 17908, 
17909, 17910, 17911, 17912, 17913, 17914, 17915, 17916, 17917, 17918, 
17919, 17920, 17921, 17922, 17923, 17924, 17925, 17926, 17927, 17928, 
17929, 17930, 17931, 17932, 17933, 17934, 17935, 17936, 17937, 17938, 
17939, 17940, 17941, 17942, 17943, 17944, 17945, 17946, 17947, 17948, 
17949, 17950, 17951, 17952, 17953, 17954, 17955, 17956, 17957, 17958, 
17959, 17960, 17961, 17962, 17963, 17964, 17965, 17966, 17967, 17968, 
17969, 17970, 17971, 17972, 17973, 17974, 17975, 17976, 17977, 17978, 
17979, 17980, 17981, 17982, 17983, 17984, 17985, 17986, 17987, 17988, 
17989, 17990, 17991, 17992, 17993, 17994, 17995, 17996, 17997, 17998, 
17999, 18000, 18001, 18002, 18003, 18004, 18005, 18006, 18007, 18008, 
18009, 18010, 18011, 18012, 18013, 18014, 18015, 18016, 18017, 18018, 
18019, 18020, 18021, 18022, 18023, 18024, 18025, 18026, 18027, 18028, 
18029, 18030, 18031, 18032, 18033, 18034, 18035, 18036, 18037, 18038, 
18039, 18040, 18041, 18042, 18043, 18044, 18045, 18046, 18047, 18048, 
** ... 58 like lines cut
*ELSET,ELSET=PhysicalVolume26
18627, 18628, 18629, 18630, 18631, 18632, 18633, 18634, 18635, 18636, 
18637, 18638, 18639, 18640, 18641, 18642, 18643, 18644, 18645, 18646, 
18647, 18648, 18649, 18650, 18651, 18652, 18653, 18654, 18655, 18656, 
18657, 18658, 18659, 18660, 18661, 18662, 18663, 18664, 18665, 18666, 
18667, 18668, 18669, 18670, 18671, 18672, 18673, 18674, 18675, 18676, 
18677, 18678, 18679, 18680, 18681, 18682, 18683, 18684, 18685, 18686, 
18687, 18688, 18689, 18690, 18691, 18692, 18693, 18694, 18695, 18696, 
18697, 18698, 18699, 18700, 18701, 18702, 18703, 18704, 18705, 18706, 
18707, 18708, 18709, 18710, 18711, 18712, 18713, 18714, 18715, 18716, 
18717, 18718, 18719, 18720, 18721, 18722, 18723, 18724, 18725, 18726, 
18727, 18728, 18729, 18730, 18731, 18732, 18733, 18734, 18735, 18736, 
18737, 18738, 18739, 18740, 18741, 18742, 18743, 18744, 18745, 18746, 
18747, 18748, 18749, 18750, 18751, 18752, 18753, 18754, 18755, 18756, 
18757, 18758, 18759, 18760, 18761, 18762, 18763, 18764, 18765, 18766, 
18767, 18768, 18769, 18770, 18771, 18772, 18773, 18774, 18775, 18776, 
18777, 18778, 18779, 18780, 18781, 18782, 18783, 18784, 18785, 18786, 
18787, 18788, 18789, 18790, 18791, 18792, 18793, 18794, 18795, 18796, 
18797, 18798, 18799, 18800, 18801, 18802, 18803, 18804, 18805, 18806, 
18807, 18808, 18809, 18810, 18811, 18812, 18813, 18814, 18815, 18816, 
18817, 18818, 18819, 18820, 18821, 18822, 18823, 18824, 18825, 18826, 
** ... 55 like lines cut
*ELSET,ELSET=PhysicalVolume27
19373, 19374, 19375, 19376, 19377, 19378, 19379, 19380, 19381, 19382, 
19383, 19384, 19385, 19386, 19387, 19388, 19389, 19390, 19391, 19392, 
19393, 19394, 19395, 19396, 19397, 19398, 19399, 19400, 19401, 19402, 
19403, 19404, 19405, 19406, 19407, 19408, 19409, 19410, 19411, 19412, 
19413, 19414, 19415, 19416, 19417, 19418, 19419, 19420, 19421, 19422, 
19423, 19424, 19425, 19426, 19427, 19428, 19429, 19430, 19431, 19432, 
19433, 19434, 19435, 19436, 19437, 19438, 19439, 19440, 19441, 19442, 
19443, 19444, 19445, 19446, 19447, 19448, 19449, 19450, 19451, 19452, 
19453, 19454, 19455, 19456, 19457, 19458, 19459, 19460, 19461, 19462, 
19463, 19464, 19465, 19466, 19467, 19468, 19469, 19470, 19471, 19472, 
19473, 19474, 19475, 19476, 19477, 19478, 19479, 19480, 19481, 19482, 
19483, 19484, 19485, 19486, 19487, 19488, 19489, 19490, 19491, 19492, 
19493, 19494, 19495, 19496, 19497, 19498, 19499, 19500, 19501, 19502, 
19503, 19504, 19505, 19506, 19507, 19508, 19509, 19510, 19511, 19512, 
19513, 19514, 19515, 19516, 19517, 19518, 19519, 19520, 19521, 19522, 
19523, 19524, 19525, 19526, 19527, 19528, 19529, 19530, 19531, 19532, 
19533, 19534, 19535, 19536, 19537, 19538, 19539, 19540, 19541, 19542, 
19543, 19544, 19545, 19546, 19547, 19548, 19549, 19550, 19551, 19552, 
19553, 19554, 19555, 19556, 19557, 19558, 19559, 19560, 19561, 19562, 
19563, 19564, 19565, 19566, 19567, 19568, 19569, 19570, 19571, 19572, 
** ... 55 like lines cut
*ELSET,ELSET=PhysicalVolume28
20120, 20121, 20122, 20123, 20124, 20125, 20126, 20127, 20128, 20129, 
20130, 20131, 20132, 20133, 20134, 20135, 20136, 20137, 20138, 20139, 
20140, 20141, 20142, 20143, 20144, 20145, 20146, 20147, 20148, 20149, 
20150, 20151, 20152, 20153, 20154, 20155, 20156, 20157, 20158, 20159, 
20160, 20161, 20162, 20163, 20164, 20165, 20166, 20167, 20168, 20169, 
20170, 20171, 20172, 20173, 20174, 20175, 20176, 20177, 20178, 20179, 
20180, 20181, 20182, 20183, 20184, 20185, 20186, 20187, 20188, 20189, 
20190, 20191, 20192, 20193, 20194, 20195, 20196, 20197, 20198, 20199, 
20200, 20201, 20202, 20203, 20204, 20205, 20206, 20207, 20208, 20209, 
20210, 20211, 20212, 20213, 20214, 20215, 20216, 20217, 20218, 20219, 
20220, 20221, 20222, 20223, 20224, 20225, 20226, 20227, 20228, 20229, 
20230, 20231, 20232, 20233, 20234, 20235, 20236, 20237, 20238, 20239, 
20240, 20241, 20242, 20243, 20244, 20245, 20246, 20247, 20248, 20249, 
20250, 20251, 20252, 20253, 20254, 20255, 20256, 20257, 20258, 20259, 
20260, 20261, 20262, 20263, 20264, 20265, 20266, 20267, 20268, 20269, 
20270, 20271, 20272, 20273, 20274, 20275, 20276, 20277, 20278, 20279, 
20280, 20281, 20282, 20283, 20284, 20285, 20286, 20287, 20288, 20289, 
20290, 20291, 20292, 20293, 20294, 20295, 20296, 20297, 20298, 20299, 
20300, 20301, 20302, 20303, 20304, 20305, 20306, 20307, 20308, 20309, 
20310, 20311, 20312, 20313, 20314, 20315, 20316, 20317, 20318, 20319, 
** ... 56 like lines cut
*ELSET,ELSET=PhysicalVolume29
20875, 20876, 20877, 20878, 20879, 20880, 20881, 20882, 20883, 20884, 
20885, 20886, 20887, 20888, 20889, 20890, 20891, 20892, 20893, 20894, 
20895, 20896, 20897, 20898, 20899, 20900, 20901, 20902, 20903, 20904, 
20905, 20906, 20907, 20908, 20909, 20910, 20911, 20912, 20913, 20914, 
20915, 20916, 20917, 20918, 20919, 20920, 20921, 20922, 20923, 20924, 
20925, 20926, 20927, 20928, 20929, 20930, 20931, 20932, 20933, 20934, 
20935, 20936, 20937, 20938, 20939, 20940, 20941, 20942, 20943, 20944, 
20945, 20946, 20947, 20948, 20949, 20950, 20951, 20952, 20953, 20954, 
20955, 20956, 20957, 20958, 20959, 20960, 20961, 20962, 20963, 20964, 
20965, 20966, 20967, 20968, 20969, 20970, 20971, 20972, 20973, 20974, 
20975, 20976, 20977, 20978, 20979, 20980, 20981, 20982, 20983, 20984, 
20985, 20986, 20987, 20988, 20989, 20990, 20991, 20992, 20993, 20994, 
20995, 20996, 20997, 20998, 20999, 21000, 21001, 21002, 21003, 21004, 
21005, 21006, 21007, 21008, 21009, 21010, 21011, 21012, 21013, 21014, 
21015, 21016, 21017, 21018, 21019, 21020, 21021, 21022, 21023, 21024, 
21025, 21026, 21027, 21028, 21029, 21030, 21031, 21032, 21033, 21034, 
21035, 21036, 21037, 21038, 21039, 21040, 21041, 21042, 21043, 21044, 
21045, 21046, 21047, 21048, 21049, 21050, 21051, 21052, 21053, 21054, 
21055, 21056, 21057, 21058, 21059, 21060, 21061, 21062, 21063, 21064, 
21065, 21066, 21067, 21068, 21069, 21070, 21071, 21072, 21073, 21074, 
** ... 55 like lines cut
*ELSET,ELSET=PhysicalVolume30
21623, 21624, 21625, 21626, 21627, 21628, 21629, 21630, 21631, 21632, 
21633, 21634, 21635, 21636, 21637, 21638, 21639, 21640, 21641, 21642, 
21643, 21644, 21645, 21646, 21647, 21648, 21649, 21650, 21651, 21652, 
21653, 21654, 21655, 21656, 21657, 21658, 21659, 21660, 21661, 21662, 
21663, 21664, 21665, 21666, 21667, 21668, 21669, 21670, 21671, 21672, 
21673, 21674, 21675, 21676, 21677, 21678, 21679, 21680, 21681, 21682, 
21683, 21684, 21685, 21686, 21687, 21688, 21689, 21690, 21691, 21692, 
21693, 21694, 21695, 21696, 21697, 21698, 21699, 21700, 21701, 21702, 
21703, 21704, 21705, 21706, 21707, 21708, 21709, 21710, 21711, 21712, 
21713, 21714, 21715, 21716, 21717, 21718, 21719, 21720, 21721, 21722, 
21723, 21724, 21725, 21726, 21727, 21728, 21729, 21730, 21731, 21732, 
21733, 21734, 21735, 21736, 21737, 21738, 21739, 21740, 21741, 21742, 
21743, 21744, 21745, 21746, 21747, 21748, 21749, 21750, 21751, 21752, 
21753, 21754, 21755, 21756, 21757, 21758, 21759, 21760, 21761, 21762, 
21763, 21764, 21765, 21766, 21767, 21768, 21769, 21770, 21771, 21772, 
21773, 21774, 21775, 21776, 21777, 21778, 21779, 21780, 21781, 21782, 
21783, 21784, 21785, 21786, 21787, 21788, 21789, 21790, 21791, 21792, 
21793, 21794, 21795, 21796, 21797, 21798, 21799, 21800, 21801, 21802, 
21803, 21804, 21805, 21806, 21807, 21808, 21809, 21810, 21811, 21812, 
21813, 21814, 21815, 21816, 21817, 21818, 21819, 21820, 21821, 21822, 
** ... 54 like lines cut
*NSET,NSET=PhysicalSurface1
1, 2, 3, 4, 5, 6, 7, 8, 9, 10, 
11, 12, 13, 14, 15, 16, 17, 18, 122, 123, 
124, 125, 126, 127, 128, 129, 130, 131, 132, 133, 
134, 135, 136, 137, 138, 139, 140, 141, 142, 143, 
144, 145, 146, 147, 148, 149, 150, 151, 152, 153, 
154, 155, 156, 157, 158, 159, 160, 161, 162, 163, 
164, 165, 166, 167, 168, 169, 170, 171, 172, 173, 
174, 175, 176, 177, 178, 179, 180, 181, 182, 183, 
184, 185, 186, 187, 188, 189, 190, 191, 192, 193, 
194, 195, 196, 197, 198, 199, 200, 201, 202, 203, 
204, 205, 206, 207, 208, 209, 210, 211, 212, 213, 
214, 215, 216, 217, 218, 219, 220, 221, 222, 223, 
224, 225, 226, 227, 228, 229, 1717, 1718, 1719, 1720, 
1721, 1722, 1723, 1724, 1725, 1726, 1727, 1728, 1729, 1730, 
1731, 1732, 1733, 1734, 1735, 1736, 1737, 1738, 1739, 1740, 
1741, 1742, 1743, 1744, 1745, 1746, 1747, 1748, 1749, 1750, 
1751, 1752, 1753, 1754, 1755, 1756, 1757, 1758, 1759, 1760, 
1761, 1762, 1763, 1764, 1765, 1766, 1767, 1768, 1769, 1770, 
1771, 1772, 1773, 1774, 1775, 1776, 1777, 1778, 1779, 1780, 
1781, 1782, 1783, 1784, 1785, 1786, 1787, 1788, 1789, 1790, 
** ... 18 like lines cut
*NSET,NSET=PhysicalSurface2
16, 17, 18, 34, 35, 36, 52, 53, 54, 70, 
71, 72, 78, 84, 162, 163, 164, 165, 166, 167, 
168, 169, 410, 411, 412, 413, 414, 415, 416, 417, 
418, 419, 420, 421, 482, 483, 484, 485, 486, 487, 
488, 489, 490, 491, 492, 493, 510, 511, 512, 513, 
514, 515, 516, 517, 534, 535, 536, 537, 538, 539, 
540, 541, 594, 595, 596, 597, 598, 599, 600, 601, 
602, 603, 604, 605, 750, 751, 752, 753, 754, 755, 
756, 757, 3467, 3468, 3469, 3470, 3471, 3472, 3473, 3474, 
3475, 3476, 3477, 3478, 3479, 3480, 3481, 3482, 3483, 3484, 
3485, 3486, 3487, 3488, 3489, 3490, 3491, 3492, 3493, 3494, 
3495, 3496, 3497, 3498, 3499, 3500, 3501, 3502, 3503, 3504, 
3505, 3506, 3507, 3508, 3509, 3510, 3511, 3512, 3513, 3514, 
3515, 3516, 3517, 3518, 3519, 3520, 3521, 3522, 3523, 3524, 
3525, 3526, 3527, 3528, 3529, 3530, 3531, 3532, 3533, 3534, 
3535, 3536, 3537, 3538, 3539, 3540, 3541, 3542, 3543, 3544, 
3545, 3546, 3547, 3548, 3549, 3550, 3551, 3552, 3553, 3554, 
3555, 3556, 3557, 3558, 3559, 3560, 3561, 3562, 3563, 3564, 
3565, 3566, 3567, 3568, 3569, 3570, 3571, 3572, 3573, 3574, 
3575, 3576, 3577, 3578, 3579, 3580, 3581, 3582, 3583, 3584, 
** ... 4 like lines cut
*NSET,NSET=PhysicalSurface3
3, 6, 9, 12, 15, 18, 21, 24, 27, 30, 
33, 36, 39, 42, 45, 48, 51, 54, 57, 60, 
63, 66, 69, 72, 89, 94, 99, 104, 109, 178, 
179, 180, 181, 190, 191, 192, 193, 202, 203, 204, 
205, 214, 215, 216, 217, 226, 227, 228, 229, 238, 
239, 240, 241, 250, 251, 252, 253, 262, 263, 264, 
265, 274, 275, 276, 277, 286, 287, 288, 289, 298, 
299, 300, 301, 310, 311, 312, 313, 322, 323, 324, 
325, 334, 335, 336, 337, 346, 347, 348, 349, 358, 
359, 360, 361, 370, 371, 372, 373, 382, 383, 384, 
385, 394, 395, 396, 397, 406, 407, 408, 409, 418, 
419, 420, 421, 430, 431, 432, 433, 442, 443, 444, 
445, 454, 455, 456, 457, 466, 467, 468, 469, 478, 
479, 480, 481, 490, 491, 492, 493, 546, 547, 548, 
549, 554, 555, 556, 557, 566, 567, 568, 569, 578, 
579, 580, 581, 590, 591, 592, 593, 602, 603, 604, 
605, 814, 815, 816, 817, 834, 835, 836, 837, 854, 
855, 856, 857, 874, 875, 876, 877, 894, 895, 896, 
897, 1964, 1965, 1966, 1967, 1968, 1969, 1970, 1971, 1972, 
1973, 1974, 1975, 1976, 1977, 1978, 1979, 1980, 1981, 1982, 
** ... 37 like lines cut
*NSET,NSET=PhysicalSurface4
1, 4, 7, 10, 13, 16, 19, 22, 25, 28, 
31, 34, 37, 40, 43, 46, 49, 52, 55, 58, 
61, 64, 67, 70, 85, 90, 95, 100, 105, 170, 
171, 172, 173, 182, 183, 184, 185, 194, 195, 196, 
197, 206, 207, 208, 209, 218, 219, 220, 221, 230, 
231, 232, 233, 242, 243, 244, 245, 254, 255, 256, 
257, 266, 267, 268, 269, 278, 279, 280, 281, 290, 
291, 292, 293, 302, 303, 304, 305, 314, 315, 316, 
317, 326, 327, 328, 329, 338, 339, 340, 341, 350, 
351, 352, 353, 362, 363, 364, 365, 374, 375, 376, 
377, 386, 387, 388, 389, 398, 399, 400, 401, 410, 
411, 412, 413, 422, 423, 424, 425, 434, 435, 436, 
437, 446, 447, 448, 449, 458, 459, 460, 461, 470, 
471, 472, 473, 482, 483, 484, 485, 542, 543, 544, 
545, 550, 551, 552, 553, 558, 559, 560, 561, 570, 
571, 572, 573, 582, 583, 584, 585, 594, 595, 596, 
597, 798, 799, 800, 801, 818, 819, 820, 821, 838, 
839, 840, 841, 858, 859, 860, 861, 878, 879, 880, 
881, 2778, 2779, 2780, 2781, 2782, 2783, 2784, 2785, 2786, 
2787, 2788, 2789, 2790, 2791, 2792, 2793, 2794, 2795, 2796, 
** ... 37 like lines cut
*NSET,NSET=PhysicalSurface5
1, 2, 3, 19, 20, 21, 37, 38, 39, 55, 
56, 57, 73, 79, 110, 111, 112, 113, 122, 123, 
124, 125, 126, 127, 128, 129, 350, 351, 352, 353, 
354, 355, 356, 357, 358, 359, 360, 361, 422, 423, 
424, 425, 426, 427, 428, 429, 430, 431, 432, 433, 
542, 543, 544, 545, 546, 547, 548, 549, 638, 639, 
640, 641, 642, 643, 644, 645, 662, 663, 664, 665, 
666, 667, 668, 669, 670, 671, 672, 673, 674, 675, 
676, 677, 710, 711, 712, 713, 714, 715, 716, 717, 
3620, 3621, 3622, 3623, 3624, 3625, 3626, 3627, 3628, 3629, 
3630, 3631, 3632, 3633, 3634, 3635, 3636, 3637, 3638, 3639, 
3640, 3641, 3642, 3643, 3644, 3645, 3646, 3647, 3648, 3649, 
3650, 3651, 3652, 3653, 3654, 3655, 3656, 3657, 3658, 3659, 
3660, 3661, 3662, 3663, 3664, 3665, 3666, 3667, 3668, 3669, 
3670, 3671, 3672, 3673, 3674, 3675, 3676, 3677, 3678, 3679, 
3680, 3681, 3682, 3683, 3684, 3685, 3686, 3687, 3688, 3689, 
3690, 3691, 3692, 3693, 3694, 3695, 3696, 3697, 3698, 3699, 
3700, 3701, 3702, 3703, 3704, 3705, 3706, 3707, 3708, 3709, 
3710, 3711, 3712, 3713, 3714, 3715, 3716, 3717, 3718, 3719, 
3720, 3721, 3722, 3723, 3724, 3725, 3726, 3727, 3728, 3729, 
3730, 3731, 3732, 3733, 3734, 3735, 3736, 3737, 3738, 3739, 
3740, 3741, 3742, 3743, 3744, 3745, 3746, 3747, 3748, 3749, 
3750, 3751, 3752, 3753, 3754, 3755, 
*Solid Section, elset=PhysicalVolume1, material=Material-1
*Solid Section, elset=PhysicalVolume2, material=Material-2
*Solid Section, elset=PhysicalVolume3, material=Material-3
*Solid Section, elset=PhysicalVolume4, material=Material-4
*Solid Section, elset=PhysicalVolume5, material=Material-5
*Solid Section, elset=PhysicalVolume6, material=Material-6
*Solid Section, elset=PhysicalVolume7, material=Material-7
*Solid Section, elset=PhysicalVolume8, material=Material-8
*Solid Section, elset=PhysicalVolume9, material=Material-9
*Solid Section, elset=PhysicalVolume10, material=Material-10
*Solid Section, elset=PhysicalVolume11, material=Material-11
*Solid Section, elset=PhysicalVolume12, material=Material-12
*Solid Section, elset=PhysicalVolume13, material=Material-13
*Solid Section, elset=PhysicalVolume14, material=Material-14
*Solid Section, elset=PhysicalVolume15, material=Material-15
*Solid Section, elset=PhysicalVolume16, material=Material-16
*Solid Section, elset=PhysicalVolume17, material=Material-17
*Solid Section, elset=PhysicalVolume18, material=Material-18
*Solid Section, elset=PhysicalVolume19, material=Material-19
*Solid Section, elset=PhysicalVolume20, material=Material-20
** ... 10 like lines cut
,
*Material, name=Material-1
*elastic
200,0.3
*Density
2.
*Material, name=Material-2
*elastic
200,0.3
*Density
2.
*Material, name=Material-3
*elastic
200,0.3
*Density
2.
*Material, name=Material-4
*elastic
200,0.3
*Density
2.
*Material, name=Material-5
*elastic
200,0.3
*Density
2.
*Material, name=Material-6
*elastic
200,0.3
*Density
2.
*Material, name=Material-7
*elastic
200,0.3
*Density
2.
*Material, name=Material-8
*elastic
200,0.3
*Density
2.
*Material, name=Material-9
*elastic
200,0.3
*Density
2.
*Material, name=Material-10
*elastic
200,0.3
*Density
2.
*Material, name=Material-11
*elastic
200,0.3
*Density
2.
*Material, name=Material-12
*elastic
200,0.3
*Density
2.
*Material, name=Material-13
*elastic
200,0.3
*Density
2.
*Material, name=Material-14
*elastic
200,0.3
*Density
2.
*Material, name=Material-15
*elastic
200,0.3
*Density
2.
*Material, name=Material-16
*elastic
200,0.3
*Density
2.
*Material, name=Material-17
*elastic
200,0.3
*Density
2.
*Material, name=Material-18
*elastic
200,0.3
*Density
2.
*Material, name=Material-19
*elastic
200,0.3
*Density
2.
*Material, name=Material-20
*elastic
200,0.3
*Density
2.
*Material, name=Material-21
*elastic
200,0.3
*Density
2.
*Material, name=Material-22
*elastic
200,0.3
*Density
2.
*Material, name=Material-23
*elastic
200,0.3
*Density
2.
*Material, name=Material-24
*elastic
200,0.3
*Density
2.
*Material, name=Material-25
*elastic
200,0.3
*Density
2.
*Material, name=Material-26
*elastic
200,0.3
*Density
2.
*Material, name=Material-27
*elastic
200,0.3
*Density
2.
*Material, name=Material-28
*elastic
200,0.3
*Density
2.
*Material, name=Material-29
*elastic
200,0.3
*Density
2.
*Material, name=Material-30
*elastic
200,0.3
*Density
2.
*Step, name=Step-1, nlgeom=NO
*static
1,1,1,1
*Boundary
PhysicalSurface1, ENCASTRE
PhysicalSurface2, 1, 2, 0.
PhysicalSurface3, 1, 2, 0.
PhysicalSurface4, 1, 2, 0.
PhysicalSurface5, 1, 2, 0.
*DLOAD
, GRAV, 9.8, 0.0, 0.0, -1.0
*Output, field, variable=Preselect
*Output, history, variable=Preselect
*measure
55, 1, 8.4268364028e-12
55, 2, 1.8594513797e-12
55, 3, -3.1357215339e+00
56, 1, 1.0291603090e-11
56, 2, -1.0815230463e-10
56, 3, -3.4680078422e+00
57, 1, -6.5857962158e-12
57, 2, 1.7339395668e-13
57, 3, -3.1770206126e+00
58, 1, 5.6123388834e-11
58, 2, -9.4444040667e-11
58, 3, -3.0122883480e+00
59, 1, 1.4169599515e-02
59, 2, -2.0481440437e-01
59, 3, -3.2746925575e+00
60, 1, -4.4094418042e-11
60, 2, -9.3703844551e-11
60, 3, -3.0518485427e+00
61, 1, 3.3431503386e-11
61, 2, -1.5087934920e-10
** ... 145 like lines cut
*End Step
