*Heading
** Job name: Job-1 Model name: Model-1
** Generated by: Abaqus/CAE 6.14-4
**Preprint, echo=NO, model=NO, history=NO, contact=NO
**
** PARTS
**
**Part, name=Part-8
*Node
      1,   2385.63037,   1687.18811
      2,   2389.63037,   1687.18811
      3,   2389.63037,   1688.18811
      4,   2385.63037,   1688.18811
      5,   2385.63037,   1693.18811
      6,   2389.63037,   1693.18811
      7,   2389.63037,   1694.18811
      8,   2385.63037,   1694.18811
      9,   2385.63037,   1692.18811
     10,   2389.63037,   1692.18811
     11,   2374.63037,   1747.18811
     12,   2374.63037,   1748.18811
     13,   2370.63037,   1748.18811
     14,   2370.63037,   1747.18811
     15,   2385.63037,   1747.18811
     16,   2385.63037,   1748.18811
     17,   2389.63037,   1747.18811
     18,   2389.63037,   1748.18811
     19,   2391.63037,   1747.18811
     20,   2391.63037,   1748.18811
** ... 12231 like lines cut
*Element, type=CPS8R
1,    1, 1113, 1114,    4, 4159, 4160, 4161, 4162
2, 1113,    2,    3, 1114, 4163, 4164, 4165, 4160
3,    5, 1115, 1116,    8, 4166, 4167, 4168, 4169
4, 1115,    6,    7, 1116, 4170, 4171, 4172, 4167
5,    9, 1117, 1115,    5, 4173, 4174, 4166, 4175
6, 1117,   10,    6, 1115, 4176, 4177, 4170, 4174
7,   11,   12, 1118, 1119, 4178, 4179, 4180, 4181
8, 1119, 1118,   13,   14, 4180, 4182, 4183, 4184
 9,   12,   11, 1120, 1129, 4178, 4185, 4186, 4187
10, 1129, 1120, 1121, 1128, 4186, 4188, 4189, 4190
11, 1128, 1121, 1122, 1127, 4189, 4191, 4192, 4193
12, 1127, 1122, 1123, 1126, 4192, 4194, 4195, 4196
13, 1126, 1123, 1124, 1125, 4195, 4197, 4198, 4199
14, 1125, 1124,   15,   16, 4198, 4200, 4201, 4202
15,   16,   15, 1130, 1131, 4201, 4203, 4204, 4205
16, 1131, 1130,   17,   18, 4204, 4206, 4207, 4208
17,   18,   17,   19,   20, 4207, 4209, 4210, 4211
18,   20,   19,   21,   22, 4210, 4212, 4213, 4214
19,   23,   24,   25,   26, 4215, 4216, 4217, 4218
20,   22,   21,   27,   28, 4213, 4219, 4220, 4221
** ... 3916 like lines cut
*Nset, nset=fluid
     1,     2,     3,     4,     5,     6,     7,     8,     9,    10,    11,    12,    13,    14,    15,    16
    17,    18,    19,    20,    21,    22,    23,    24,    25,    26,    27,    28,    29,    30,    31,    32
    33,    34,    35,    36,    37,    38,    39,    40,    41,    42,    43,    44,    45,    46,    47,    48
    49,    50,    51,    52,    53,    54,    55,    56,    57,    58,    59,    60,    61,    62,    63,    64
    65,    66,    67,    68,    69,    70,    71,    72,    73,    74,    75,    76,    77,    78,    79,    80
    81,    82,    83,    84,    85,    86,    87,    88,    89,    90,    91,    92,    93,    94,    95,    96
    97,    98,    99,   100,   101,   102,   103,   104,   105,   106,   107,   108,   109,   110,   111,   112
   113,   114,   115,   116,   117,   118,   119,   120,   121,   122,   123,   124,   125,   126,   127,   128
   129,   130,   131,   132,   133,   134,   135,   136,   137,   138,   139,   140,   141,   142,   143,   144
   145,   146,   147,   148,   149,   150,   151,   152,   153,   154,   155,   156,   157,   158,   159,   160
   161,   162,   163,   164,   165,   166,   167,   168,   169,   170,   171,   172,   173,   174,   175,   176
   177,   178,   179,   180,   181,   182,   183,   184,   185,   186,   187,   188,   190,   191,   192,   193
   195,   196,   197,   200,   201,   204,   205,   208,   209,   212,   213,   215,   217,   218,   219,   220
   221,   222,   223,   224,   225,   226,   227,   228,   229,   230,   231,   232,   233,   234,   235,   236
   237,   238,   239,   240,   241,   242,   243,   244,   245,   246,   247,   248,   249,   250,   251,   252
   253,   254,   255,   256,   257,   258,   259,   260,   261,   262,   263,   264,   265,   266,   267,   268
   269,   270,   271,   272,   273,   274,   275,   276,   277,   278,   279,   280,   281,   282,   283,   284
   285,   286,   287,   288,   289,   290,   291,   292,   293,   294,   295,   296,   297,   298,   299,   300
   301,   302,   303,   304,   305,   306,   307,   308,   309,   310,   311,   312,   313,   314,   315,   316
   317,   318,   319,   320,   321,   322,   323,   324,   325,   326,   327,   328,   329,   330,   331,   332
** ... 542 like lines cut
*Elset, elset=fluid
    1,    2,    3,    4,    5,    6,  103,  104,  105,  106,  107,  108,  109,  110,  111,  112
  113,  114,  115,  116,  117,  118,  119,  120,  121,  122,  123,  124,  125,  126,  127,  128
  129,  727,  728,  729,  730,  731,  732,  733,  734,  735,  736, 1292, 1293, 1294, 1295, 1296
 1297, 1298, 1299, 1300, 1301, 1302, 1303, 1304, 1305, 1306, 1307, 1308, 1309, 1310, 1311, 1312
 1313, 1314, 1315, 1316, 1317, 1318, 1319, 1320, 1321, 1322, 1323, 1324, 1325, 1326, 1327, 1328
 1329, 1330, 1331, 1332, 1333, 1334, 1335, 1336, 1337, 1338, 1339, 1340, 1341, 1342, 1343, 1344
 1345, 1346, 1347, 1348, 1349, 1350, 1351, 1352, 1353, 1354, 1355, 1356, 1357, 1358, 1359, 1360
 1361, 1362, 1363, 1364, 1365, 1366, 1367, 1368, 1369, 1370, 1371, 1372, 1373, 1374, 1375, 1376
 1377, 1378, 1379, 1380, 1381, 1382, 1383, 1384, 1385, 1386, 1387, 1388, 1389, 1390, 1391, 1392
 1393, 1394, 1395, 1396, 1397, 1398, 1399, 1400, 1401, 1402, 1403, 1404, 1405, 1406, 1407, 1408
 1409, 1410, 1411, 1412, 1413, 1414, 1415, 1416, 1417, 1418, 1419, 1420, 1421, 1422, 1423, 1424
 1425, 1426, 1427, 1428, 1429, 1430, 1431, 1432, 1433, 1434, 1435, 1436, 1437, 1438, 1439, 1440
 1441, 1442, 1443, 1444, 1445, 1446, 1447, 1448, 1449, 1450, 1451, 1452, 1453, 1454, 1455, 1456
 1457, 1458, 1459, 1460, 1461, 1462, 1463, 1464, 1465, 1466, 1467, 1468, 1469, 1470, 1471, 1472
 1473, 1474, 1475, 1476, 1477, 1478, 1479, 1480, 1481, 1482, 1483, 1484, 1485, 1486, 1487, 1488
 1489, 1490, 1491, 1492, 1493, 1494, 1495, 1496, 1497, 1498, 1499, 1500, 1501, 1502, 1503, 1504
 1505, 1506, 1507, 1508, 1509, 1510, 1511, 1512, 1513, 1514, 1515, 1516, 1517, 1518, 1519, 1520
 1521, 1522, 1523, 1524, 1525, 1526, 1527, 1528, 1529, 1530, 1531, 1532, 1533, 1534, 1535, 1536
 1537, 1538, 1539, 1540, 1541, 1542, 1543, 1544, 1545, 1546, 1547, 1548, 1549, 1550, 1551, 1552
 1553, 1554, 1555, 1556, 1557, 1558, 1559, 1560, 1561, 1562, 1563, 1564, 1565, 1566, 1567, 1568
** ... 121 like lines cut
*Nset, nset=Set-2
     3,     4,     7,     8,    11,    12,    13,    14,    15,    16,    17,    18,    19,    20,    21,    22
    23,    24,    25,    26,    27,    28,    29,    30,    31,    32,    33,    34,    35,    36,    37,    38
    39,    40,    41,    42,    43,    44,    45,    46,    47,    48,    49,    50,    51,    52,    53,    54
    55,    56,    57,    58,    59,    60,    61,    62,    63,    64,    65,    66,    67,    68,    69,    70
    71,    72,    73,    74,    75,    76,    77,    78,    79,    80,    81,    82,    83,    84,    85,    86
    87,    88,    89,    90,    91,    92,    93,    94,    95,    96,    97,    98,    99,   100,   101,   102
   103,   104,   105,   106,   107,   108,   109,   110,   111,   112,   113,   115,   117,   118,   120,   121
   123,   124,   125,   126,   127,   128,   129,   130,   131,   132,   133,   134,   135,   136,   137,   138
   139,   140,   141,   142,   143,   144,   145,   146,   147,   148,   149,   150,   151,   152,   153,   154
   155,   156,   157,   158,   159,   160,   161,   162,   163,   164,   165,   166,   167,   168,   169,   170
   171,   172,   173,   174,   175,   176,   177,   178,   179,   180,   181,   182,   183,   184,   185,   186
   187,   188,   189,   190,   191,   192,   193,   194,   195,   196,   197,   198,   199,   200,   201,   202
   203,   204,   205,   206,   207,   208,   209,   210,   211,   212,   213,   214,   215,   216,   217,   218
   219,   220,   221,   222,   223,   224,   225,   226,   227,   228,   229,   230,   231,   232,   233,   234
   235,   236,   237,   238,   239,   240,   241,   242,   243,   244,   245,   246,   247,   248,   249,   250
   251,   252,   253,   254,   255,   256,   257,   258,   259,   260,   261,   262,   263,   264,   265,   266
   267,   268,   269,   270,   271,   272,   273,   274,   275,   276,   277,   278,   279,   280,   281,   282
   283,   284,   285,   286,   287,   288,   289,   290,   291,   292,   293,   294,   295,   296,   297,   298
   299,   300,   301,   302,   303,   304,   305,   306,   307,   308,   309,   310,   311,   312,   313,   314
   315,   316,   317,   318,   319,   320,   321,   322,   323,   324,   325,   326,   327,   328,   329,   330
** ... 466 like lines cut
*Elset, elset=Set-2
    7,    8,    9,   10,   11,   12,   13,   14,   15,   16,   17,   18,   19,   20,   21,   22
   23,   24,   25,   26,   27,   28,   29,   30,   31,   32,   33,   34,   35,   36,   37,   38
   39,   40,   41,   42,   43,   44,   45,   46,   47,   48,   49,   50,   51,   52,   53,   54
   55,   56,   57,   58,   59,   60,   61,   62,   63,   64,   65,   66,   67,   68,   69,   70
   71,   72,   73,   74,   75,   76,   77,   78,   79,   80,   81,   82,   83,   84,   85,   86
   87,   88,   89,   90,   91,   92,   93,   94,   95,   96,   97,   98,   99,  100,  101,  102
  130,  131,  132,  133,  134,  135,  136,  137,  138,  139,  140,  141,  142,  143,  144,  145
  146,  147,  148,  149,  150,  151,  152,  153,  154,  155,  156,  157,  158,  159,  160,  161
  162,  163,  164,  165,  166,  167,  168,  169,  170,  171,  172,  173,  174,  175,  176,  177
  178,  179,  180,  181,  182,  183,  184,  185,  186,  187,  188,  189,  190,  191,  192,  193
  194,  195,  196,  197,  198,  199,  200,  201,  202,  203,  204,  205,  206,  207,  208,  209
  210,  211,  212,  213,  214,  215,  216,  217,  218,  219,  220,  221,  222,  223,  224,  225
  226,  227,  228,  229,  230,  231,  232,  233,  234,  235,  236,  237,  238,  239,  240,  241
  242,  243,  244,  245,  246,  247,  248,  249,  250,  251,  252,  253,  254,  255,  256,  257
  258,  259,  260,  261,  262,  263,  264,  265,  266,  267,  268,  269,  270,  271,  272,  273
  274,  275,  276,  277,  278,  279,  280,  281,  282,  283,  284,  285,  286,  287,  288,  289
  290,  291,  292,  293,  294,  295,  296,  297,  298,  299,  300,  301,  302,  303,  304,  305
  306,  307,  308,  309,  310,  311,  312,  313,  314,  315,  316,  317,  318,  319,  320,  321
  322,  323,  324,  325,  326,  327,  328,  329,  330,  331,  332,  333,  334,  335,  336,  337
  338,  339,  340,  341,  342,  343,  344,  345,  346,  347,  348,  349,  350,  351,  352,  353
** ... 86 like lines cut
*Nset, nset=solid
     3,     4,     7,     8,    11,    12,    13,    14,    15,    16,    17,    18,    19,    20,    21,    22
    23,    24,    25,    26,    27,    28,    29,    30,    31,    32,    33,    34,    35,    36,    37,    38
    39,    40,    41,    42,    43,    44,    45,    46,    47,    48,    49,    50,    51,    52,    53,    54
    55,    56,    57,    58,    59,    60,    61,    62,    63,    64,    65,    66,    67,    68,    69,    70
    71,    72,    73,    74,    75,    76,    77,    78,    79,    80,    81,    82,    83,    84,    85,    86
    87,    88,    89,    90,    91,    92,    93,    94,    95,    96,    97,    98,    99,   100,   101,   102
   103,   104,   105,   106,   107,   108,   109,   110,   111,   112,   113,   115,   117,   118,   120,   121
   123,   124,   125,   126,   127,   128,   129,   130,   131,   132,   133,   134,   135,   136,   137,   138
   139,   140,   141,   142,   143,   144,   145,   146,   147,   148,   149,   150,   151,   152,   153,   154
   155,   156,   157,   158,   159,   160,   161,   162,   163,   164,   165,   166,   167,   168,   169,   170
   171,   172,   173,   174,   175,   176,   177,   178,   179,   180,   181,   182,   183,   184,   185,   186
   187,   188,   189,   190,   191,   192,   193,   194,   195,   196,   197,   198,   199,   200,   201,   202
   203,   204,   205,   206,   207,   208,   209,   210,   211,   212,   213,   214,   215,   216,   217,   218
   219,   220,   221,   222,   223,   224,   225,   226,   227,   228,   229,   230,   231,   232,   233,   234
   235,   236,   237,   238,   239,   240,   241,   242,   243,   244,   245,   246,   247,   248,   249,   250
   251,   252,   253,   254,   255,   256,   257,   258,   259,   260,   261,   262,   263,   264,   265,   266
   267,   268,   269,   270,   271,   272,   273,   274,   275,   276,   277,   278,   279,   280,   281,   282
   283,   284,   285,   286,   287,   288,   289,   290,   291,   292,   293,   294,   295,   296,   297,   298
   299,   300,   301,   302,   303,   304,   305,   306,   307,   308,   309,   310,   311,   312,   313,   314
   315,   316,   317,   318,   319,   320,   321,   322,   323,   324,   325,   326,   327,   328,   329,   330
** ... 466 like lines cut
*Elset, elset=solid
    7,    8,    9,   10,   11,   12,   13,   14,   15,   16,   17,   18,   19,   20,   21,   22
   23,   24,   25,   26,   27,   28,   29,   30,   31,   32,   33,   34,   35,   36,   37,   38
   39,   40,   41,   42,   43,   44,   45,   46,   47,   48,   49,   50,   51,   52,   53,   54
   55,   56,   57,   58,   59,   60,   61,   62,   63,   64,   65,   66,   67,   68,   69,   70
   71,   72,   73,   74,   75,   76,   77,   78,   79,   80,   81,   82,   83,   84,   85,   86
   87,   88,   89,   90,   91,   92,   93,   94,   95,   96,   97,   98,   99,  100,  101,  102
  130,  131,  132,  133,  134,  135,  136,  137,  138,  139,  140,  141,  142,  143,  144,  145
  146,  147,  148,  149,  150,  151,  152,  153,  154,  155,  156,  157,  158,  159,  160,  161
  162,  163,  164,  165,  166,  167,  168,  169,  170,  171,  172,  173,  174,  175,  176,  177
  178,  179,  180,  181,  182,  183,  184,  185,  186,  187,  188,  189,  190,  191,  192,  193
  194,  195,  196,  197,  198,  199,  200,  201,  202,  203,  204,  205,  206,  207,  208,  209
  210,  211,  212,  213,  214,  215,  216,  217,  218,  219,  220,  221,  222,  223,  224,  225
  226,  227,  228,  229,  230,  231,  232,  233,  234,  235,  236,  237,  238,  239,  240,  241
  242,  243,  244,  245,  246,  247,  248,  249,  250,  251,  252,  253,  254,  255,  256,  257
  258,  259,  260,  261,  262,  263,  264,  265,  266,  267,  268,  269,  270,  271,  272,  273
  274,  275,  276,  277,  278,  279,  280,  281,  282,  283,  284,  285,  286,  287,  288,  289
  290,  291,  292,  293,  294,  295,  296,  297,  298,  299,  300,  301,  302,  303,  304,  305
  306,  307,  308,  309,  310,  311,  312,  313,  314,  315,  316,  317,  318,  319,  320,  321
  322,  323,  324,  325,  326,  327,  328,  329,  330,  331,  332,  333,  334,  335,  336,  337
  338,  339,  340,  341,  342,  343,  344,  345,  346,  347,  348,  349,  350,  351,  352,  353
** ... 86 like lines cut
*Nset, nset=PUMP1
     5,     6,     7,     8,     9,    10,   117,   937,  1115,  1116,  1117,  2930,  4166,  4167,  4168,  4169
  4170,  4171,  4172,  4173,  4174,  4175,  4176,  4177,  4533, 10090, 10091, 12155, 12203
*Elset, elset=PUMP1
    3,    4,    5,    6, 3893, 3894
*Nset, nset=PUMP2
     1,     2,     3,     4,   433,   436,  1113,  1114,  1839,  4159,  4160,  4161,  4162,  4163,  4164,  4165
  6299,  6302,  7664,  8004, 12205
*Elset, elset=PUMP2
    1,    2, 3896, 3897
*Nset, nset=Source2
   406,   407,  1066,  1067,  1070,  1073,  1074,  1075,  3194,  3195,  3196,  3197,  3294,  3295,  3296,  3297
  3437,  3438,  3439,  3440,  3441,  3442,  3443,  3444,  6222, 10926, 10944, 10946, 10948, 10950, 10952, 11003
 11134, 11163, 11165, 11167, 11169, 11171, 11203, 12206, 12207, 12208, 12209, 12210, 12211, 12212, 12213, 12214
 12215, 12239, 12240, 12241, 12242, 12243, 12244, 12245, 12246, 12247, 12248, 12249, 12250, 12251
*Elset, elset=Source2
 3898, 3899, 3900, 3901, 3902, 3927, 3928, 3929, 3930, 3931, 3932, 3933, 3934, 3935, 3936
*Nset, nset=Source1
    85,    86,   179,   281,   282,   283,   284,   285,   286,   287,   288,   289,   290,   291,   362,   363
   364,   365,   366,   367,   368,   369,   370,   371,  1624,  1625,  1626,  1627,  1628,  1629,  1630,  1631
  1632,  1633,  1634,  1635,  1718,  1719,  1720,  1721,  1722,  1723,  1724,  1725,  1726,  1727,  1728,  1729
  4472,  4738,  5745,  5746,  5747,  5748,  5749,  5750,  5751,  5752,  5753,  5754,  5755,  5756,  5757,  5758
  5759,  5760,  5761,  5762,  5763,  5764,  5765,  5766,  5767,  5768,  5769,  5770,  5771,  5772,  5773,  5774
  5775,  5776,  6001,  6002,  6003,  6004,  6005,  6006,  6007,  6008,  6009,  6010,  6011,  6012,  6013,  6014
  6015,  6016,  6017,  6018,  6019,  6020,  6021,  6022,  6023,  6024,  6025,  6026,  6027,  6028,  6029,  6030
  6031,  6032,  6033,  6034,  6035,  6036,  6037,  6038,  6039,  6040,  6041,  6042,  7750, 11526, 12192, 12193
*Elset, elset=Source1
  643,  644,  645,  646,  647,  648,  649,  650,  651,  652,  727,  728,  729,  730,  731,  732
  733,  734,  735,  736,  737,  738,  739,  740,  741,  742,  743,  744,  745,  746, 3874, 3875
 3892,
**End Part
**  
**
** ASSEMBLY
**
*Assembly, name=Assembly
**  
*Instance, name=Part-8-1, part=Part-8
*End Instance
**  
*End Assembly
** 
** MATERIALS
** 
*Material, name=fluid
*Elastic
 2.1e+11, 0.3
*Material, name=solid
*Elastic
210., 0.3
** ----------------------------------------------------------------
** 
** STEP: Step-1
** 
*Step, name=Step-1, nlgeom=YES
*Static
1., 1., 1e-05, 1.
** 
** OUTPUT REQUESTS
** 
*Restart, write, frequency=0
** 
** FIELD OUTPUT: F-Output-1
** 
*Output, field, variable=PRESELECT
** 
** HISTORY OUTPUT: H-Output-1
** 
*Output, history, variable=PRESELECT
*End Step
